                                  MODFLOW-2005     
      U.S. GEOLOGICAL SURVEY MODULAR FINITE-DIFFERENCE GROUND-WATER FLOW MODEL
                            VERSION 1.8.00 12/18/2009

 LIST FILE: imodflow.list
                         UNIT   10

 OPENING imodflow.dis                                                                                                                                                                                                                                                                                                
 FILE TYPE:DIS   UNIT   11   STATUS:OLD    
 FORMAT:FORMATTED              ACCESS:SEQUENTIAL          

 OPENING imodflow.bas6                                                                                                                                                                                                                                                                                               
 FILE TYPE:BAS6   UNIT   12   STATUS:OLD    
 FORMAT:FORMATTED              ACCESS:SEQUENTIAL          

 OPENING imodflow.bcf6                                                                                                                                                                                                                                                                                               
 FILE TYPE:BCF6   UNIT   13   STATUS:OLD    
 FORMAT:FORMATTED              ACCESS:SEQUENTIAL          

 OPENING imodflow.oc                                                                                                                                                                                                                                                                                                 
 FILE TYPE:OC   UNIT   14   STATUS:OLD    
 FORMAT:FORMATTED              ACCESS:SEQUENTIAL          

 OPENING imodflow.met                                                                                                                                                                                                                                                                                                
 FILE TYPE:MET   UNIT   15   STATUS:OLD    
 FORMAT:FORMATTED              ACCESS:SEQUENTIAL          

 OPENING imodflow.wel                                                                                                                                                                                                                                                                                                
 FILE TYPE:WEL   UNIT   19   STATUS:OLD    
 FORMAT:FORMATTED              ACCESS:SEQUENTIAL          

 OPENING imodflow.pcg                                                                                                                                                                                                                                                                                                
 FILE TYPE:PCG   UNIT   22   STATUS:OLD    
 FORMAT:FORMATTED              ACCESS:SEQUENTIAL          
# data:                                                                                                                                                                                                                                                                                                     

 BAS -- BASIC PACKAGE, VERSION 7, 5/2/2005 INPUT READ FROM UNIT   12

 DISCRETIZATION INPUT DATA READ FROM UNIT   11
 # Discretization file
    2 LAYERS       100 ROWS       100 COLUMNS
    1 STRESS PERIOD(S) IN SIMULATION
 MODEL TIME UNIT IS DAYS
 MODEL LENGTH UNIT IS METERS
  Confining bed flag for each layer:
   1   0

                     DELR =   25.0000    

                     DELC =   25.0000    

 TOP ELEVATION OF LAYER 1 =   0.00000    

   MODEL LAYER BOTTOM EL. =   0.00000     FOR LAYER   1

 BOT. EL. OF QUASI-3D BED =   0.00000     FOR LAYER   1

   MODEL LAYER BOTTOM EL. =   0.00000     FOR LAYER   2


 STRESS PERIOD     LENGTH       TIME STEPS     MULTIPLIER FOR DELT    SS FLAG
 ----------------------------------------------------------------------------
        1         0.000000          1                    1.000         SS

 STEADY-STATE SIMULATION



 
 # Basic Package file                                                            
 THE FREE FORMAT OPTION HAS BEEN SELECTED

 OPENING FILE ON UNIT   99:
 P:\1206764-IMOD\IMOD30\TESTBANK\RUNS\TEST_ALL\BOUNDARY\IMODFLOW_IBOUND1.IDF                                                                                                                             
  FILE IDENTIFIED AS IDF

           BOUNDARY ARRAY =              1 FOR LAYER   2

 AQUIFER HEAD WILL BE SET TO  -999.99     AT ALL NO-FLOW NODES (IBOUND=0).

 OPENING FILE ON UNIT   99:
 P:\1206764-IMOD\IMOD30\TESTBANK\RUNS\TEST_ALL\STARTING_HEADS\IMODFLOW_SHEAD1.IDF                                                                                                                        
  FILE IDENTIFIED AS IDF

 OPENING FILE ON UNIT   99:
 P:\1206764-IMOD\IMOD30\TESTBANK\RUNS\TEST_ALL\STARTING_HEADS\IMODFLOW_SHEAD2.IDF                                                                                                                        
  FILE IDENTIFIED AS IDF

 OUTPUT CONTROL IS SPECIFIED ONLY AT TIME STEPS FOR WHICH OUTPUT IS DESIRED
 HEAD PRINT FORMAT CODE IS   0    DRAWDOWN PRINT FORMAT CODE IS   0
 HEADS WILL BE SAVED ON UNIT   28    DRAWDOWNS WILL BE SAVED ON UNIT    0

 BCF -- BLOCK-CENTERED FLOW PACKAGE, VERSION 7, 5/2/2005
         INPUT READ FROM UNIT 13
 STEADY-STATE SIMULATION
 CELL-BY-CELL FLOWS WILL BE SAVED ON UNIT 29
 HEAD AT CELLS THAT CONVERT TO DRY=  -9999.0    
 WETTING CAPABILITY IS NOT ACTIVE
      LAYER  LAYER-TYPE CODE     INTERBLOCK T
      --------------------------------------------
         1            0          0 -- HARMONIC    
         2            0          0 -- HARMONIC    

 COLUMN TO ROW ANISOTROPY =   1.00000    

 OPENING FILE ON UNIT   99:
 P:\1206764-IMOD\IMOD30\TESTBANK\RUNS\TEST_ALL\TRANSMISSIVITY\IMODFLOW_KD1.IDF                                                                                                                           
  FILE IDENTIFIED AS IDF

 OPENING FILE ON UNIT   99:
 P:\1206764-IMOD\IMOD30\TESTBANK\RUNS\TEST_ALL\VERTICAL_RESISTANCE\IMODFLOW_C1.IDF                                                                                                                       
  FILE IDENTIFIED AS IDF

 OPENING FILE ON UNIT   99:
 P:\1206764-IMOD\IMOD30\TESTBANK\RUNS\TEST_ALL\TRANSMISSIVITY\IMODFLOW_KD2.IDF                                                                                                                           
  FILE IDENTIFIED AS IDF

 WEL -- WELL PACKAGE, VERSION 7, 5/2/2005 INPUT READ FROM UNIT   19
 # Well Package file
 No named parameters
 MAXIMUM OF      1 ACTIVE WELLS AT ONE TIME
 CELL-BY-CELL FLOWS WILL BE SAVED ON UNIT   33
 LISTS OF WELL CELLS WILL NOT BE PRINTED


     0 Well parameters

 PCG -- CONJUGATE-GRADIENT SOLUTION PACKAGE, VERSION 7, 5/2/2005
 # Preconditioned Conjugate-Gradient Package
 MAXIMUM OF    150 CALLS OF SOLUTION ROUTINE
 MAXIMUM OF     20 INTERNAL ITERATIONS PER CALL TO SOLUTION ROUTINE
 MATRIX PRECONDITIONING TYPE :    1



                                    SOLUTION BY THE CONJUGATE-GRADIENT METHOD
                                   -------------------------------------------
                    MAXIMUM NUMBER OF CALLS TO PCG ROUTINE =      150
                        MAXIMUM ITERATIONS PER CALL TO PCG =       20
                               MATRIX PRECONDITIONING TYPE =        1
        RELAXATION FACTOR (ONLY USED WITH PRECOND. TYPE 1) =    0.98000E+00
 PARAMETER OF POLYNOMIAL PRECOND. = 2 (2) OR IS CALCULATED :        1
                         HEAD CHANGE CRITERION FOR CLOSURE =    0.10000E-03
                     RESIDUAL CHANGE CRITERION FOR CLOSURE =    0.10000E+02
            PCG HEAD AND RESIDUAL CHANGE PRINTOUT INTERVAL =        1
     PRINTING FROM SOLVER IS LIMITED(1) OR SUPPRESSED (>1) =        0
                            STEADY-STATE DAMPING PARAMETER =    0.10000E+01
                               TRANSIENT DAMPING PARAMETER =    0.10000E+01
1
                            STRESS PERIOD NO.    1, LENGTH =   0.000000    
                            -----------------------------------------------

                              NUMBER OF TIME STEPS =     1

                               MULTIPLIER FOR DELT =     1.000

                            INITIAL TIME STEP SIZE =   0.000000    
  DATA IDENTIFIED AS GCD

 OPENING FILE ON UNIT   99:
 P:\1206764-IMOD\IMOD30\TESTBANK\RUNS\TEST_ALL\WELLS\IMODFLOW_WELL1.IPF                                                                                                                                  
  FILE IDENTIFIED AS IPF

 OPENING FILE ON UNIT   99:
 P:\1206764-IMOD\IMOD30\TESTBANK\RUNS\TEST_ALL\WELLS\IMODFLOW_WELL2.IPF                                                                                                                                  
  FILE IDENTIFIED AS IPF

      2 WELLS
 
 SOLVING FOR HEAD 
 
 SOLVING FOR HEAD 
 
 SOLVING FOR HEAD 
 
 SOLVING FOR HEAD 


     4 CALLS TO PCG ROUTINE FOR TIME STEP   1 IN STRESS PERIOD    1
    61 TOTAL ITERATIONS

 MAXIMUM HEAD CHANGE FOR EACH ITERATION (1 INDICATES THE FIRST INNER ITERATION):

    HEAD CHANGE    HEAD CHANGE    HEAD CHANGE    HEAD CHANGE    HEAD CHANGE 
   LAYER,ROW,COL  LAYER,ROW,COL  LAYER,ROW,COL  LAYER,ROW,COL  LAYER,ROW,COL
 ---------------------------------------------------------------------------
  1  -13.69      0   2.890      0   1.771      0  -1.243      0 -0.5568    
   (  1, 49, 49)  (  1, 50, 50)  (  2,  1,100)  (  1, 49, 49)  (  2,  1,100)
  0 -0.4535      0  0.3205      0  0.2195      0  0.2236      0  0.1727    
   (  1, 55, 44)  (  2,  3, 81)  (  2,  2, 86)  (  2,  2, 79)  (  2,  4, 74)
  0  0.1622      0  0.1894      0  0.1846      0  0.1322      0  0.1206    
   (  2,  2, 79)  (  2,  1, 70)  (  2,  1, 49)  (  2,  1, 55)  (  2,  1, 62)
  0  0.1212      0  0.1319      0  0.1145      0  0.8441E-01  0  0.4550E-01
   (  2,  3, 57)  (  2,  2, 63)  (  1, 43, 29)  (  1, 54, 32)  (  2, 53, 35)
  1 -0.2081E-01  0  0.2103E-01  0 -0.1940E-01  0  0.1526E-01  0  0.1523E-01
   (  2,  3, 57)  (  2,  2, 41)  (  2,  6, 60)  (  2, 96, 14)  (  2, 89, 31)
  0  0.1865E-01  0  0.1902E-01  0  0.1368E-01  0  0.8276E-02  0  0.6837E-02
   (  2, 97, 34)  (  1,100, 35)  (  2, 99, 36)  (  2, 89, 45)  (  2,100, 47)
  0 -0.6540E-02  0  0.5449E-02  0  0.4923E-02  0  0.4295E-02  0  0.3590E-02
   (  2,  3, 26)  (  1, 49, 49)  (  2, 99, 63)  (  1, 40, 61)  (  2, 42, 61)
  0  0.2595E-02  0  0.2249E-02  0  0.2151E-02  0  0.2188E-02  0  0.3127E-02
   (  2, 38, 70)  (  2,  2, 16)  (  2,  5, 68)  (  2,  2, 48)  (  1,  1, 53)
  1 -0.5146E-03  0  0.8928E-03  0  0.8837E-03  0  0.8934E-03  0  0.8273E-03
   (  2,100, 91)  (  2,  2, 31)  (  2, 16, 36)  (  2,  9, 38)  (  2,  4, 42)
  0  0.9857E-03  0  0.9488E-03  0  0.6869E-03  0  0.5005E-03  0  0.4273E-03
   (  2,  1, 46)  (  2,  4, 40)  (  2,  2, 15)  (  2,  2, 30)  (  2,  6, 19)
  0  0.2979E-03  0  0.2879E-03  0  0.2692E-03  0  0.2543E-03  0  0.1527E-03
   (  2,  1, 28)  (  2, 11, 81)  (  1,  4, 80)  (  2,  5, 74)  (  2, 99, 54)
  0  0.1200E-03  0  0.1245E-03  0  0.1219E-03  0  0.1021E-03  0  0.7855E-04
   (  1, 80, 54)  (  2, 83, 49)  (  1, 97, 42)  (  1, 92, 44)  (  2, 96, 43)
  1 -0.3929E-04
   (  2,  4, 58)

 MAXIMUM RESIDUAL FOR EACH ITERATION (1 INDICATES THE FIRST INNER ITERATION):

    RESIDUAL       RESIDUAL       RESIDUAL       RESIDUAL       RESIDUAL    
   LAYER,ROW,COL  LAYER,ROW,COL  LAYER,ROW,COL  LAYER,ROW,COL  LAYER,ROW,COL
 ---------------------------------------------------------------------------
  1  -288.2      0   195.9      0   89.41      0  -90.51      0  -90.24    
   (  1, 49, 48)  (  1, 48, 50)  (  2,  1, 99)  (  1, 49, 49)  (  1, 49, 49)
  0   37.35      0   27.10      0   26.34      0  -9.322      0  -12.06    
   (  2,  2, 98)  (  1, 49, 49)  (  1, 49, 49)  (  2, 99, 99)  (  1, 49, 49)
  0  -14.90      0  -8.084      0   7.737      0   6.166      0   3.861    
   (  1, 49, 49)  (  1, 48, 50)  (  2,  3, 97)  (  2,100, 99)  (  1, 48, 50)
  0  -7.837      0  -6.418      0   2.967      0  -4.419      0   2.568    
   (  2,100, 99)  (  2,100, 99)  (  2,  5, 95)  (  2, 99,100)  (  2,100, 99)
  1   1.267      0  -1.096      0  -1.764      0  0.8236      0 -0.8032    
   (  2,100, 99)  (  2,100, 99)  (  2,100, 99)  (  1, 47, 51)  (  2, 99, 99)
  0   1.267      0 -0.6925      0  0.6731      0 -0.5447      0 -0.3046    
   (  2,100, 99)  (  1, 51, 47)  (  2, 99, 99)  (  2,100, 99)  (  2,  3, 97)
  0 -0.4722      0  0.4963      0  0.2899      0  0.3294      0 -0.3224    
   (  2, 99, 99)  (  1, 49, 49)  (  1, 49, 49)  (  2, 99, 99)  (  1, 49, 49)
  0 -0.1760      0 -0.1313      0  0.1243      0 -0.1015      0  0.9392E-01
   (  1, 49, 49)  (  2, 99, 99)  (  1, 49, 49)  (  2,  1, 99)  (  1, 49, 49)
  1  0.3143E-01  0 -0.4163E-01  0 -0.5301E-01  0  0.2322E-01  0  0.2449E-01
   (  2, 99, 99)  (  1, 49, 49)  (  2, 99, 99)  (  1,  1, 99)  (  2, 99, 99)
  0  0.4269E-01  0 -0.2358E-01  0  0.1571E-01  0 -0.2073E-01  0 -0.1286E-01
   (  2, 99, 99)  (  1,  3,  2)  (  2, 98, 99)  (  2, 99, 99)  (  1, 49, 49)
  0  0.1173E-01  0  0.1463E-01  0 -0.9269E-02  0 -0.9909E-02  0 -0.9409E-02
   (  2, 99, 99)  (  2, 99, 99)  (  1,  3,  2)  (  2, 99, 99)  (  2, 99, 99)
  0 -0.4770E-02  0  0.6263E-02  0  0.5896E-02  0  0.2925E-02  0  0.3949E-02
   (  1,  2,  3)  (  2, 99, 99)  (  2, 99, 99)  (  1,  1,  3)  (  2,100, 99)
  1  0.1727E-02
   (  2,100, 99)



 OUTPUT CONTROL FOR STRESS PERIOD    1   TIME STEP   1
    SAVE HEAD FOR ALL LAYERS
    SAVE BUDGET
    SAVE BUDGET
 INFO. Sign of cbc-flux FLOW RIGHT FACE is swapped!
 INFO. Sign of cbc-flux FLOW FRONT FACE is swapped!
 INFO. Sign of cbc-flux FLOW LOWER FACE is swapped!

 HEAD WILL BE SAVED ON UNIT   28 AT END OF TIME STEP   1, STRESS PERIOD    1
1
  VOLUMETRIC BUDGET FOR ENTIRE MODEL AT END OF TIME STEP  1 IN STRESS PERIOD   1
  ------------------------------------------------------------------------------

     CUMULATIVE VOLUMES      L**3       RATES FOR THIS TIME STEP      L**3/T
     ------------------                 ------------------------

           IN:                                      IN:
           ---                                      ---
             STORAGE =           0.0000               STORAGE =           0.0000
       CONSTANT HEAD =           0.0000         CONSTANT HEAD =        3750.1868
               WELLS =           0.0000                 WELLS =           0.0000

            TOTAL IN =           0.0000              TOTAL IN =        3750.1868

          OUT:                                     OUT:
          ----                                     ----
             STORAGE =           0.0000               STORAGE =           0.0000
       CONSTANT HEAD =           0.0000         CONSTANT HEAD =           0.0000
               WELLS =           0.0000                 WELLS =        3750.0000

           TOTAL OUT =           0.0000             TOTAL OUT =        3750.0000

            IN - OUT =           0.0000              IN - OUT =           0.1868

 PERCENT DISCREPANCY =           0.00     PERCENT DISCREPANCY =           0.00






          TIME SUMMARY AT END OF TIME STEP   1 IN STRESS PERIOD    1
                    SECONDS     MINUTES      HOURS       DAYS        YEARS
                    -----------------------------------------------------------
   TIME STEP LENGTH  0.0000      0.0000      0.0000      0.0000      0.0000    
 STRESS PERIOD TIME  0.0000      0.0000      0.0000      0.0000      0.0000    
         TOTAL TIME  0.0000      0.0000      0.0000      0.0000      0.0000    
1

 Run end date and time (yyyy/mm/dd hh:mm:ss): 2014/09/25 16:10:06
 Elapsed run time:  6.291 Seconds

