                                  MODFLOW-2005     
      U.S. GEOLOGICAL SURVEY MODULAR FINITE-DIFFERENCE GROUND-WATER FLOW MODEL
                            VERSION 1.8.00 12/18/2009

 LIST FILE: imodflow.list
                         UNIT   10

 OPENING imodflow.dis                                                                                                                                                                                                                                                                                                
 FILE TYPE:DIS   UNIT   11   STATUS:OLD    
 FORMAT:FORMATTED              ACCESS:SEQUENTIAL          

 OPENING imodflow.bas6                                                                                                                                                                                                                                                                                               
 FILE TYPE:BAS6   UNIT   12   STATUS:OLD    
 FORMAT:FORMATTED              ACCESS:SEQUENTIAL          

 OPENING imodflow.lpf                                                                                                                                                                                                                                                                                                
 FILE TYPE:LPF   UNIT   13   STATUS:OLD    
 FORMAT:FORMATTED              ACCESS:SEQUENTIAL          

 OPENING imodflow.oc                                                                                                                                                                                                                                                                                                 
 FILE TYPE:OC   UNIT   14   STATUS:OLD    
 FORMAT:FORMATTED              ACCESS:SEQUENTIAL          

 OPENING imodflow.met                                                                                                                                                                                                                                                                                                
 FILE TYPE:MET   UNIT   15   STATUS:OLD    
 FORMAT:FORMATTED              ACCESS:SEQUENTIAL          

 OPENING imodflow.wel                                                                                                                                                                                                                                                                                                
 FILE TYPE:WEL   UNIT   19   STATUS:OLD    
 FORMAT:FORMATTED              ACCESS:SEQUENTIAL          

 OPENING imodflow.pcg                                                                                                                                                                                                                                                                                                
 FILE TYPE:PCG   UNIT   22   STATUS:OLD    
 FORMAT:FORMATTED              ACCESS:SEQUENTIAL          

 OPENING imodflow.rch                                                                                                                                                                                                                                                                                                
 FILE TYPE:RCH   UNIT   23   STATUS:OLD    
 FORMAT:FORMATTED              ACCESS:SEQUENTIAL          
# data:                                                                                                                                                                                                                                                                                                     

 BAS -- BASIC PACKAGE, VERSION 7, 5/2/2005 INPUT READ FROM UNIT   12

 DISCRETIZATION INPUT DATA READ FROM UNIT   11
 # Discretization file
    2 LAYERS       100 ROWS       100 COLUMNS
    1 STRESS PERIOD(S) IN SIMULATION
 MODEL TIME UNIT IS DAYS
 MODEL LENGTH UNIT IS METERS
  Confining bed flag for each layer:
   1   0

                     DELR =   25.0000    

                     DELC =   25.0000    

 TOP ELEVATION OF LAYER 1 =   10.0000    

   MODEL LAYER BOTTOM EL. =   0.00000     FOR LAYER   1

 BOT. EL. OF QUASI-3D BED =  -5.00000     FOR LAYER   1

   MODEL LAYER BOTTOM EL. =  -50.0000     FOR LAYER   2


 STRESS PERIOD     LENGTH       TIME STEPS     MULTIPLIER FOR DELT    SS FLAG
 ----------------------------------------------------------------------------
        1         0.000000          1                    1.000         SS

 STEADY-STATE SIMULATION



 
 # Basic Package file                                                            
 THE FREE FORMAT OPTION HAS BEEN SELECTED

 OPENING FILE ON UNIT   99:
 P:\1206764-IMOD\IMOD30\TESTBANK\RUNS\TEST_ALL\BOUNDARY\IMODFLOW_IBOUND1.IDF                                                                                                                             
  FILE IDENTIFIED AS IDF

           BOUNDARY ARRAY =              1 FOR LAYER   2

 AQUIFER HEAD WILL BE SET TO  -999.99     AT ALL NO-FLOW NODES (IBOUND=0).

             INITIAL HEAD =   2.50000     FOR LAYER   1

             INITIAL HEAD =   2.50000     FOR LAYER   2

 OUTPUT CONTROL IS SPECIFIED ONLY AT TIME STEPS FOR WHICH OUTPUT IS DESIRED
 HEAD PRINT FORMAT CODE IS   0    DRAWDOWN PRINT FORMAT CODE IS   0
 HEADS WILL BE SAVED ON UNIT   28    DRAWDOWNS WILL BE SAVED ON UNIT    0

 LPF -- LAYER-PROPERTY FLOW PACKAGE, VERSION 7, 5/2/2005
         INPUT READ FROM UNIT   13
 CELL-BY-CELL FLOWS WILL BE SAVED ON UNIT   29
 HEAD AT CELLS THAT CONVERT TO DRY=  -9999.0    
 No named parameters
 STORAGECOEFFICIENT OPTION:
 Read storage coefficient rather than specific storage

   LAYER FLAGS:
 LAYER       LAYTYP        LAYAVG         CHANI        LAYVKA        LAYWET
 ---------------------------------------------------------------------------
    1             0             0     1.000E+00             1             0
    2             0             0     1.000E+00             1             0

   INTERPRETATION OF LAYER FLAGS:
                        INTERBLOCK     HORIZONTAL    DATA IN
         LAYER TYPE   TRANSMISSIVITY   ANISOTROPY   ARRAY VKA   WETTABILITY
 LAYER      (LAYTYP)      (LAYAVG)       (CHANI)      (LAYVKA)      (LAYWET)
 ---------------------------------------------------------------------------
    1      CONFINED      HARMONIC     1.000E+00    ANISOTROPY  NON-WETTABLE
    2      CONFINED      HARMONIC     1.000E+00    ANISOTROPY  NON-WETTABLE

 WETTING CAPABILITY IS NOT ACTIVE IN ANY LAYER

    HYD. COND. ALONG ROWS =   5.00000     FOR LAYER   1

  HORIZ. TO VERTICAL ANI. =   3.33333     FOR LAYER   1

 QUASI3D VERT. HYD. COND. =  5.000000E-03 FOR LAYER   1

    HYD. COND. ALONG ROWS =   25.0000     FOR LAYER   2

  HORIZ. TO VERTICAL ANI. =   3.33333     FOR LAYER   2

 WEL -- WELL PACKAGE, VERSION 7, 5/2/2005 INPUT READ FROM UNIT   19
 # Well Package file
 No named parameters
 MAXIMUM OF      1 ACTIVE WELLS AT ONE TIME
 CELL-BY-CELL FLOWS WILL BE SAVED ON UNIT   33
 LISTS OF WELL CELLS WILL NOT BE PRINTED


     0 Well parameters

 RCH -- RECHARGE PACKAGE, VERSION 7, 5/2/2005 INPUT READ FROM UNIT   23
 # Recharge Package file
 No named parameters
 OPTION 1 -- RECHARGE TO TOP LAYER
 CELL-BY-CELL FLOWS WILL BE SAVED ON UNIT   34


     0 Recharge parameters

 PCG -- CONJUGATE-GRADIENT SOLUTION PACKAGE, VERSION 7, 5/2/2005
 # Preconditioned Conjugate-Gradient Package
 MAXIMUM OF    150 CALLS OF SOLUTION ROUTINE
 MAXIMUM OF     20 INTERNAL ITERATIONS PER CALL TO SOLUTION ROUTINE
 MATRIX PRECONDITIONING TYPE :    1



                                    SOLUTION BY THE CONJUGATE-GRADIENT METHOD
                                   -------------------------------------------
                    MAXIMUM NUMBER OF CALLS TO PCG ROUTINE =      150
                        MAXIMUM ITERATIONS PER CALL TO PCG =       20
                               MATRIX PRECONDITIONING TYPE =        1
        RELAXATION FACTOR (ONLY USED WITH PRECOND. TYPE 1) =    0.98000E+00
 PARAMETER OF POLYNOMIAL PRECOND. = 2 (2) OR IS CALCULATED :        1
                         HEAD CHANGE CRITERION FOR CLOSURE =    0.10000E-03
                     RESIDUAL CHANGE CRITERION FOR CLOSURE =    0.10000E+02
            PCG HEAD AND RESIDUAL CHANGE PRINTOUT INTERVAL =        1
     PRINTING FROM SOLVER IS LIMITED(1) OR SUPPRESSED (>1) =        0
                            STEADY-STATE DAMPING PARAMETER =    0.10000E+01
                               TRANSIENT DAMPING PARAMETER =    0.10000E+01
1
                            STRESS PERIOD NO.    1, LENGTH =   0.000000    
                            -----------------------------------------------

                              NUMBER OF TIME STEPS =     1

                               MULTIPLIER FOR DELT =     1.000

                            INITIAL TIME STEP SIZE =   0.000000    
  DATA IDENTIFIED AS GCD

 OPENING FILE ON UNIT   99:
 P:\1206764-IMOD\IMOD30\TESTBANK\RUNS\TEST_ALL\WELLS\IMODFLOW_WELL1.IPF                                                                                                                                  
  FILE IDENTIFIED AS IPF

 OPENING FILE ON UNIT   99:
 P:\1206764-IMOD\IMOD30\TESTBANK\RUNS\TEST_ALL\WELLS\IMODFLOW_WELL2.IPF                                                                                                                                  
  FILE IDENTIFIED AS IPF

      2 WELLS

                 RECHARGE =  7.500000E-04
 
 SOLVING FOR HEAD 
 
 SOLVING FOR HEAD 
 
 SOLVING FOR HEAD 
 
 SOLVING FOR HEAD 
 
 SOLVING FOR HEAD 
 
 SOLVING FOR HEAD 
 
 SOLVING FOR HEAD 
 
 SOLVING FOR HEAD 
 
 SOLVING FOR HEAD 


     9 CALLS TO PCG ROUTINE FOR TIME STEP   1 IN STRESS PERIOD    1
   152 TOTAL ITERATIONS

 MAXIMUM HEAD CHANGE FOR EACH ITERATION (1 INDICATES THE FIRST INNER ITERATION):

    HEAD CHANGE    HEAD CHANGE    HEAD CHANGE    HEAD CHANGE    HEAD CHANGE 
   LAYER,ROW,COL  LAYER,ROW,COL  LAYER,ROW,COL  LAYER,ROW,COL  LAYER,ROW,COL
 ---------------------------------------------------------------------------
  1  -2.930      0  0.4892      0  0.3785      0  0.3023      0  0.2428    
   (  1, 49, 49)  (  1, 52, 52)  (  1, 49, 49)  (  1, 49, 49)  (  1, 49, 49)
  0  0.2919      0  0.2929      0  0.1932      0 -0.2169      0 -0.1812    
   (  1, 48, 50)  (  1, 48, 50)  (  1, 18, 60)  (  1, 50, 48)  (  1, 48, 50)
  0  0.1630      0  0.2173      0  0.3241      0  0.3465      0  0.3096    
   (  1, 20, 84)  (  1,  1, 77)  (  1, 50, 48)  (  1, 47, 51)  (  1, 47, 51)
  0  0.2892      0  0.3128      0  0.2620      0  0.2411      0  0.2564    
   (  1, 34, 62)  (  2, 99,  8)  (  1, 95, 19)  (  1, 96, 15)  (  1, 97, 69)
  1  0.7696E-01  0  0.1271      0  0.1105      0  0.7674E-01  0  0.5770E-01
   (  1, 52, 46)  (  1, 54, 44)  (  1, 61, 39)  (  1, 53, 45)  (  1,100, 70)
  0 -0.6769E-01  0 -0.6294E-01  0 -0.5265E-01  0 -0.5108E-01  0  0.3959E-01
   (  1, 40, 57)  (  1, 45, 53)  (  1,  1, 86)  (  1,  4, 76)  (  1,100, 44)
  0  0.3567E-01  0  0.3400E-01  0  0.3425E-01  0  0.3118E-01  0 -0.2461E-01
   (  1, 48, 50)  (  1, 48, 50)  (  1, 80, 19)  (  1, 67, 20)  (  1, 48, 50)
  0 -0.2091E-01  0 -0.2043E-01  0  0.2895E-01  0  0.6136E-01  0  0.1232    
   (  1, 49, 49)  (  1, 49, 49)  (  1, 42, 56)  (  1, 49, 49)  (  1, 49, 49)
  1 -0.7327E-01  0 -0.5062E-01  0  0.2076E-01  0  0.2510E-01  0  0.2943E-01
   (  1, 49, 49)  (  1, 49, 49)  (  1, 10, 66)  (  1, 49, 49)  (  1, 49, 49)
  0  0.1969E-01  0 -0.1763E-01  0  0.1726E-01  0  0.1902E-01  0  0.2357E-01
   (  1, 48, 50)  (  1, 82, 27)  (  2,  3,  5)  (  1, 32, 79)  (  1,  3, 86)
  0  0.2739E-01  0  0.3365E-01  0  0.3926E-01  0  0.4102E-01  0  0.3526E-01
   (  1, 15, 78)  (  1, 50, 48)  (  1, 51, 46)  (  1, 42, 55)  (  2,  3, 80)
  0  0.3438E-01  0  0.3108E-01  0  0.3009E-01  0  0.2311E-01  0  0.1968E-01
   (  2,  2, 85)  (  1, 99, 16)  (  1,100, 11)  (  1, 97, 18)  (  1,  4, 32)
  1  0.6798E-02  0 -0.1258E-01  0 -0.1643E-01  0 -0.1113E-01  0  0.1179E-01
   (  1,  3, 24)  (  1,  4, 88)  (  1,  8, 85)  (  1, 12, 81)  (  1, 98, 78)
  0  0.1042E-01  0  0.8117E-02  0  0.5327E-02  0  0.5512E-02  0  0.5142E-02
   (  1, 99, 16)  (  1, 94, 16)  (  1,100, 31)  (  1,100, 41)  (  1, 99, 45)
  0  0.3954E-02  0  0.3324E-02  0  0.4091E-02  0  0.4710E-02  0  0.4721E-02
   (  1, 96, 47)  (  1, 50, 48)  (  1, 77, 26)  (  1, 87, 15)  (  1, 89, 21)
  0  0.4095E-02  0  0.4278E-02  0  0.4861E-02  0  0.8920E-02  0  0.1152E-01
   (  1, 63, 34)  (  1, 39, 58)  (  1, 41, 52)  (  1, 49, 49)  (  1, 49, 49)
  1 -0.9513E-02  0 -0.7457E-02  0 -0.2567E-02  0  0.2533E-02  0  0.4103E-02
   (  1, 49, 49)  (  1, 49, 49)  (  1, 41, 53)  (  1, 49, 49)  (  1, 49, 49)
  0  0.3446E-02  0  0.3197E-02  0  0.3194E-02  0  0.2707E-02  0  0.3190E-02
   (  1, 48, 50)  (  1,  3, 48)  (  2,  2,  4)  (  1, 32, 79)  (  1,  3, 86)
  0  0.3636E-02  0  0.4405E-02  0  0.5071E-02  0  0.6513E-02  0  0.6117E-02
   (  1, 17, 79)  (  1,  3, 74)  (  1, 46, 51)  (  1, 42, 55)  (  1, 40, 58)
  0  0.5695E-02  0  0.5102E-02  0  0.4265E-02  0  0.2733E-02  0  0.2084E-02
   (  1,  7, 51)  (  1,  5, 76)  (  1,  7, 84)  (  1, 97, 18)  (  1, 79, 37)
  1 -0.9570E-03  0 -0.1983E-02  0 -0.2605E-02  0 -0.1897E-02  0  0.1889E-02
   (  1,  2, 77)  (  1,  4, 87)  (  1,  7, 84)  (  1,  6, 77)  (  1, 97, 78)
  0  0.1587E-02  0  0.1197E-02  0 -0.7565E-03  0  0.8265E-03  0  0.7669E-03
   (  1, 99, 16)  (  1, 94, 16)  (  1,  1, 78)  (  1,100, 41)  (  1, 97, 43)
  0  0.6041E-03  0  0.5166E-03  0  0.6284E-03  0  0.7516E-03  0  0.7758E-03
   (  1, 96, 47)  (  1, 89, 49)  (  1, 76, 26)  (  1, 87, 15)  (  1, 89, 21)
  0  0.6249E-03  0  0.6153E-03  0  0.6920E-03  0  0.1288E-02  0  0.1555E-02
   (  1, 92, 20)  (  1, 39, 58)  (  1, 41, 53)  (  1, 49, 49)  (  1, 49, 49)
  1 -0.1305E-02  0 -0.1055E-02  0 -0.3800E-03  0  0.3475E-03  0  0.5988E-03
   (  1, 49, 49)  (  1, 49, 49)  (  1, 41, 53)  (  1, 49, 49)  (  1, 49, 49)
  0  0.5070E-03  0  0.5166E-03  0  0.5126E-03  0  0.4297E-03  0  0.5020E-03
   (  1, 47, 50)  (  1,  3, 48)  (  2,  2,  4)  (  2,  3,  1)  (  1,  3, 86)
  0  0.5661E-03  0  0.6777E-03  0  0.7688E-03  0  0.9920E-03  0  0.9179E-03
   (  1, 13, 76)  (  1,  4, 74)  (  1, 47, 52)  (  1, 42, 55)  (  1, 40, 58)
  0  0.8589E-03  0  0.7692E-03  0  0.6493E-03  0  0.4104E-03  0  0.3072E-03
   (  1,  7, 51)  (  1,  6, 77)  (  1,  7, 84)  (  1, 97, 18)  (  1, 79, 37)
  1 -0.1469E-03  0 -0.3091E-03  0 -0.3975E-03  0 -0.2909E-03  0  0.3094E-03
   (  1,  2, 77)  (  1,  4, 87)  (  1,  7, 84)  (  1,  6, 77)  (  1, 97, 78)
  0  0.2396E-03  0  0.1794E-03  0  0.1197E-03  0  0.1310E-03  0  0.1233E-03
   (  1, 99, 74)  (  1, 94, 16)  (  1, 99, 53)  (  1,100, 41)  (  1, 95, 42)
  0  0.9893E-04  1  0.3900E-04
   (  1, 96, 48)  (  1,  8, 77)

 MAXIMUM RESIDUAL FOR EACH ITERATION (1 INDICATES THE FIRST INNER ITERATION):

    RESIDUAL       RESIDUAL       RESIDUAL       RESIDUAL       RESIDUAL    
   LAYER,ROW,COL  LAYER,ROW,COL  LAYER,ROW,COL  LAYER,ROW,COL  LAYER,ROW,COL
 ---------------------------------------------------------------------------
  1   134.8      0  -292.6      0  -182.3      0  -55.55      0   81.72    
   (  2, 73, 25)  (  2, 74, 24)  (  2, 74, 24)  (  2, 73, 25)  (  2, 74, 24)
  0   148.1      0   157.6      0   151.7      0  -47.70      0  -68.38    
   (  2, 74, 24)  (  2, 73, 25)  (  2, 75, 23)  (  2, 75, 22)  (  2, 73, 25)
  0  -101.9      0  -92.80      0  -92.33      0   69.51      0   92.00    
   (  2, 75, 23)  (  2, 76, 22)  (  2, 76, 22)  (  2, 73, 25)  (  2, 72, 26)
  0   112.3      0  -63.08      0  -60.06      0  -69.63      0  -48.39    
   (  2, 76, 22)  (  2, 74, 24)  (  2, 74, 24)  (  2, 72, 26)  (  2, 71, 27)
  1  -27.40      0  -18.96      0   37.66      0   31.62      0   16.64    
   (  2, 77, 21)  (  2, 78, 20)  (  2, 77, 21)  (  2, 76, 22)  (  2, 70, 28)
  0   16.00      0  -25.35      0  -17.10      0   10.36      0   15.75    
   (  2, 77, 22)  (  2, 72, 26)  (  2, 76, 22)  (  2, 77, 20)  (  2, 76, 22)
  0   9.620      0   8.027      0  -13.25      0   12.63      0   10.00    
   (  2, 76, 22)  (  2, 75, 23)  (  2, 76, 22)  (  2, 74, 24)  (  2, 74, 24)
  0  -5.116      0  -17.91      0  -22.24      0   5.198      0   32.64    
   (  2, 72, 25)  (  2, 74, 24)  (  2, 74, 24)  (  2, 71, 27)  (  2, 74, 24)
  1   8.446      0  -16.97      0  -17.67      0  -5.200      0   12.29    
   (  2, 74, 24)  (  2, 74, 24)  (  2, 74, 24)  (  2, 72, 25)  (  2, 74, 24)
  0   14.35      0  -7.790      0   6.506      0  -7.191      0   6.829    
   (  2, 74, 24)  (  2, 76, 22)  (  2, 73, 25)  (  2, 74, 24)  (  2, 72, 26)
  0  -5.087      0  -6.150      0  -10.02      0   7.485      0   6.137    
   (  2, 73, 25)  (  2, 72, 26)  (  2, 72, 26)  (  2, 71, 26)  (  2, 72, 26)
  0   9.248      0   6.572      0   4.009      0  -3.968      0  -3.613    
   (  2, 76, 22)  (  2, 77, 20)  (  2, 71, 27)  (  2, 76, 22)  (  2, 78, 21)
  1   2.215      0  -2.299      0   4.642      0   4.164      0   1.846    
   (  2, 74, 24)  (  2, 70, 28)  (  2, 78, 21)  (  2, 76, 22)  (  2, 79, 20)
  0  -2.363      0  -2.860      0  -1.617      0 -0.9256      0   1.494    
   (  2, 70, 27)  (  2, 72, 26)  (  2, 72, 26)  (  2, 77, 22)  (  2, 72, 26)
  0  -1.399      0  0.9176      0  -1.453      0   2.041      0   1.796    
   (  2, 74, 24)  (  2, 73, 25)  (  2, 76, 22)  (  2, 74, 24)  (  2, 74, 24)
  0 -0.9695      0  -2.775      0  -2.526      0  0.8075      0   3.830    
   (  2, 73, 26)  (  2, 74, 24)  (  2, 74, 24)  (  2, 74, 24)  (  2, 74, 24)
  1   1.024      0  -2.140      0  -2.443      0 -0.8230      0   1.456    
   (  2, 74, 24)  (  2, 74, 24)  (  2, 74, 24)  (  2, 73, 26)  (  2, 74, 24)
  0   1.740      0  -1.121      0  0.7893      0 -0.9115      0  0.8973    
   (  2, 74, 24)  (  2, 76, 22)  (  2, 73, 25)  (  2, 74, 24)  (  2, 72, 26)
  0 -0.6311      0 -0.7770      0  -1.414      0  0.9943      0 -0.6339    
   (  2, 77, 22)  (  2, 72, 26)  (  2, 72, 26)  (  2, 71, 26)  (  2, 77, 21)
  0   1.236      0   1.010      0  0.4864      0 -0.3814      0 -0.5155    
   (  2, 76, 22)  (  2, 71, 28)  (  2, 77, 21)  (  2, 77, 20)  (  2, 77, 20)
  1 -0.3021      0  0.3358      0  0.6696      0  0.5900      0  0.2666    
   (  2, 77, 20)  (  2, 77, 20)  (  2, 77, 20)  (  2, 76, 22)  (  2, 79, 20)
  0 -0.3427      0 -0.3938      0 -0.2121      0 -0.1341      0  0.2045    
   (  2, 70, 27)  (  2, 72, 26)  (  2, 72, 26)  (  2, 77, 22)  (  2, 72, 26)
  0 -0.2016      0  0.1336      0 -0.2109      0  0.3094      0  0.2624    
   (  2, 74, 24)  (  2, 73, 25)  (  2, 76, 22)  (  2, 74, 24)  (  2, 74, 24)
  0 -0.1359      0 -0.3798      0 -0.3319      0  0.1247      0  0.5181    
   (  2, 73, 26)  (  2, 74, 24)  (  2, 74, 24)  (  2, 74, 24)  (  2, 74, 24)
  1  0.1425      0 -0.2953      0 -0.3408      0 -0.1168      0  0.2049    
   (  2, 74, 24)  (  2, 74, 24)  (  2, 74, 24)  (  2, 73, 26)  (  2, 74, 24)
  0  0.2473      0 -0.1590      0  0.1077      0 -0.1321      0  0.1272    
   (  2, 74, 24)  (  2, 76, 22)  (  2, 73, 25)  (  2, 74, 24)  (  2, 72, 26)
  0 -0.8947E-01  0 -0.1083      0 -0.1990      0  0.1422      0 -0.8692E-01
   (  2, 77, 22)  (  2, 72, 26)  (  2, 72, 26)  (  2, 71, 26)  (  2, 78, 23)
  0  0.1713      0  0.1473      0 -0.6282E-01  0 -0.5298E-01  0 -0.7718E-01
   (  2, 76, 22)  (  2, 71, 28)  (  2, 70, 28)  (  2, 77, 20)  (  2, 77, 20)
  1 -0.4362E-01  0  0.4985E-01  0  0.9915E-01  0  0.8613E-01  0  0.3898E-01
   (  2, 71, 28)  (  2, 77, 20)  (  2, 77, 20)  (  2, 76, 22)  (  2, 79, 20)
  0 -0.5094E-01  0 -0.5699E-01  0  0.3064E-01  0 -0.2000E-01  0  0.2973E-01
   (  2, 70, 27)  (  2, 72, 26)  (  2, 74, 24)  (  2, 77, 22)  (  2, 72, 26)
  0 -0.2995E-01  1 -0.1725E-01
   (  2, 74, 24)  (  2, 74, 24)



 OUTPUT CONTROL FOR STRESS PERIOD    1   TIME STEP   1
    SAVE HEAD FOR ALL LAYERS
    SAVE BUDGET
    SAVE BUDGET
    SAVE BUDGET
 INFO. Sign of cbc-flux FLOW RIGHT FACE is swapped!
 INFO. Sign of cbc-flux FLOW FRONT FACE is swapped!
 INFO. Sign of cbc-flux FLOW LOWER FACE is swapped!

 HEAD WILL BE SAVED ON UNIT   28 AT END OF TIME STEP   1, STRESS PERIOD    1
1
  VOLUMETRIC BUDGET FOR ENTIRE MODEL AT END OF TIME STEP  1 IN STRESS PERIOD   1
  ------------------------------------------------------------------------------

     CUMULATIVE VOLUMES      L**3       RATES FOR THIS TIME STEP      L**3/T
     ------------------                 ------------------------

           IN:                                      IN:
           ---                                      ---
             STORAGE =           0.0000               STORAGE =           0.0000
       CONSTANT HEAD =           0.0000         CONSTANT HEAD =           0.0000
               WELLS =           0.0000                 WELLS =           0.0000
            RECHARGE =           0.0000              RECHARGE =        4593.7505

            TOTAL IN =           0.0000              TOTAL IN =        4593.7505

          OUT:                                     OUT:
          ----                                     ----
             STORAGE =           0.0000               STORAGE =           0.0000
       CONSTANT HEAD =           0.0000         CONSTANT HEAD =        3092.4431
               WELLS =           0.0000                 WELLS =        1500.0000
            RECHARGE =           0.0000              RECHARGE =           0.0000

           TOTAL OUT =           0.0000             TOTAL OUT =        4592.4434

            IN - OUT =           0.0000              IN - OUT =           1.3071

 PERCENT DISCREPANCY =           0.00     PERCENT DISCREPANCY =           0.03






          TIME SUMMARY AT END OF TIME STEP   1 IN STRESS PERIOD    1
                    SECONDS     MINUTES      HOURS       DAYS        YEARS
                    -----------------------------------------------------------
   TIME STEP LENGTH  0.0000      0.0000      0.0000      0.0000      0.0000    
 STRESS PERIOD TIME  0.0000      0.0000      0.0000      0.0000      0.0000    
         TOTAL TIME  0.0000      0.0000      0.0000      0.0000      0.0000    
1

 Run end date and time (yyyy/mm/dd hh:mm:ss): 2014/11/20  9:46:23
 Elapsed run time:  2.915 Seconds

