                                  MODFLOW-2005     
      U.S. GEOLOGICAL SURVEY MODULAR FINITE-DIFFERENCE GROUND-WATER FLOW MODEL
                            VERSION 1.8.00 12/18/2009

 LIST FILE: imodflow.list
                         UNIT   10

 OPENING imodflow.dis                                                                                                                                                                                                                                                                                                
 FILE TYPE:DIS   UNIT   11   STATUS:OLD    
 FORMAT:FORMATTED              ACCESS:SEQUENTIAL          

 OPENING imodflow.bas6                                                                                                                                                                                                                                                                                               
 FILE TYPE:BAS6   UNIT   12   STATUS:OLD    
 FORMAT:FORMATTED              ACCESS:SEQUENTIAL          

 OPENING imodflow.bcf6                                                                                                                                                                                                                                                                                               
 FILE TYPE:BCF6   UNIT   13   STATUS:OLD    
 FORMAT:FORMATTED              ACCESS:SEQUENTIAL          

 OPENING imodflow.oc                                                                                                                                                                                                                                                                                                 
 FILE TYPE:OC   UNIT   14   STATUS:OLD    
 FORMAT:FORMATTED              ACCESS:SEQUENTIAL          

 OPENING imodflow.met                                                                                                                                                                                                                                                                                                
 FILE TYPE:MET   UNIT   15   STATUS:OLD    
 FORMAT:FORMATTED              ACCESS:SEQUENTIAL          

 OPENING imodflow.wel                                                                                                                                                                                                                                                                                                
 FILE TYPE:WEL   UNIT   19   STATUS:OLD    
 FORMAT:FORMATTED              ACCESS:SEQUENTIAL          

 OPENING imodflow.hfb6                                                                                                                                                                                                                                                                                               
 FILE TYPE:HFB6   UNIT   21   STATUS:OLD    
 FORMAT:FORMATTED              ACCESS:SEQUENTIAL          

 OPENING imodflow.pcg                                                                                                                                                                                                                                                                                                
 FILE TYPE:PCG   UNIT   22   STATUS:OLD    
 FORMAT:FORMATTED              ACCESS:SEQUENTIAL          
# data:                                                                                                                                                                                                                                                                                                     

 BAS -- BASIC PACKAGE, VERSION 7, 5/2/2005 INPUT READ FROM UNIT   12

 DISCRETIZATION INPUT DATA READ FROM UNIT   11
 # Discretization file
    2 LAYERS       100 ROWS       100 COLUMNS
    1 STRESS PERIOD(S) IN SIMULATION
 MODEL TIME UNIT IS DAYS
 MODEL LENGTH UNIT IS METERS
  Confining bed flag for each layer:
   1   0

                     DELR =   25.0000    

                     DELC =   25.0000    

 TOP ELEVATION OF LAYER 1 =   0.00000    

   MODEL LAYER BOTTOM EL. =   0.00000     FOR LAYER   1

 BOT. EL. OF QUASI-3D BED =   0.00000     FOR LAYER   1

   MODEL LAYER BOTTOM EL. =   0.00000     FOR LAYER   2


 STRESS PERIOD     LENGTH       TIME STEPS     MULTIPLIER FOR DELT    SS FLAG
 ----------------------------------------------------------------------------
        1         0.000000          1                    1.000         SS

 STEADY-STATE SIMULATION



 
 # Basic Package file                                                            
 THE FREE FORMAT OPTION HAS BEEN SELECTED

 OPENING FILE ON UNIT   99:
 P:\1206764-IMOD\IMOD30\TESTBANK\RUNS\TEST_ALL\BOUNDARY\IMODFLOW_IBOUND1.IDF                                                                                                                             
  FILE IDENTIFIED AS IDF

           BOUNDARY ARRAY =              1 FOR LAYER   2

 AQUIFER HEAD WILL BE SET TO  -999.99     AT ALL NO-FLOW NODES (IBOUND=0).

 OPENING FILE ON UNIT   99:
 P:\1206764-IMOD\IMOD30\TESTBANK\RUNS\TEST_ALL\STARTING_HEADS\IMODFLOW_SHEAD1.IDF                                                                                                                        
  FILE IDENTIFIED AS IDF

 OPENING FILE ON UNIT   99:
 P:\1206764-IMOD\IMOD30\TESTBANK\RUNS\TEST_ALL\STARTING_HEADS\IMODFLOW_SHEAD2.IDF                                                                                                                        
  FILE IDENTIFIED AS IDF

 OUTPUT CONTROL IS SPECIFIED ONLY AT TIME STEPS FOR WHICH OUTPUT IS DESIRED
 HEAD PRINT FORMAT CODE IS   0    DRAWDOWN PRINT FORMAT CODE IS   0
 HEADS WILL BE SAVED ON UNIT   28    DRAWDOWNS WILL BE SAVED ON UNIT    0

 BCF -- BLOCK-CENTERED FLOW PACKAGE, VERSION 7, 5/2/2005
         INPUT READ FROM UNIT 13
 STEADY-STATE SIMULATION
 CELL-BY-CELL FLOWS WILL BE SAVED ON UNIT 29
 HEAD AT CELLS THAT CONVERT TO DRY=  -9999.0    
 WETTING CAPABILITY IS NOT ACTIVE
      LAYER  LAYER-TYPE CODE     INTERBLOCK T
      --------------------------------------------
         1            0          0 -- HARMONIC    
         2            0          0 -- HARMONIC    

 COLUMN TO ROW ANISOTROPY =   1.00000    

 OPENING FILE ON UNIT   99:
 P:\1206764-IMOD\IMOD30\TESTBANK\RUNS\TEST_ALL\TRANSMISSIVITY\IMODFLOW_KD1.IDF                                                                                                                           
  FILE IDENTIFIED AS IDF

 OPENING FILE ON UNIT   99:
 P:\1206764-IMOD\IMOD30\TESTBANK\RUNS\TEST_ALL\VERTICAL_RESISTANCE\IMODFLOW_C1.IDF                                                                                                                       
  FILE IDENTIFIED AS IDF

 OPENING FILE ON UNIT   99:
 P:\1206764-IMOD\IMOD30\TESTBANK\RUNS\TEST_ALL\TRANSMISSIVITY\IMODFLOW_KD2.IDF                                                                                                                           
  FILE IDENTIFIED AS IDF

 WEL -- WELL PACKAGE, VERSION 7, 5/2/2005 INPUT READ FROM UNIT   19
 # Well Package file
 No named parameters
 MAXIMUM OF      1 ACTIVE WELLS AT ONE TIME
 CELL-BY-CELL FLOWS WILL BE SAVED ON UNIT   33
 LISTS OF WELL CELLS WILL NOT BE PRINTED


     0 Well parameters

 HFB -- HORIZONTAL-FLOW BARRIER PACKAGE, VERSION 7, 5/2/2005.
   INPUT READ FROM UNIT   21
 # Horizontal Flow Barrier Package file
     0 PARAMETERS DEFINE A MAXIMUM OF      0 HORIZONTAL FLOW BARRIERS
      1 HORIZONTAL FLOW BARRIERS NOT DEFINED BY PARAMETERS
 LISTS OF HORIZONTAL FLOW BARRIER CELLS WILL NOT BE PRINTED
          Applying factor instead of hydraulic characteristic


     0 HFB parameters

      1 BARRIERS NOT DEFINED BY PARAMETERS
  DATA IDENTIFIED AS LCD

 OPENING FILE ON UNIT   99:
 P:\1206764-IMOD\IMOD30\TESTBANK\RUNS\TEST_ALL\HORIZONTAL_BARRIER\IMODFLOW_HFB2.GEN                                                                                                                      
  FILE IDENTIFIED AS GEN

 OPENING FILE ON UNIT   99:
 P:\1206764-IMOD\IMOD30\TESTBANK\RUNS\TEST_ALL\HORIZONTAL_BARRIER\IMODFLOW_HFB2.GEN                                                                                                                      
  FILE IDENTIFIED AS GEN

    270 HFB BARRIERS

 PCG -- CONJUGATE-GRADIENT SOLUTION PACKAGE, VERSION 7, 5/2/2005
 # Preconditioned Conjugate-Gradient Package
 MAXIMUM OF    150 CALLS OF SOLUTION ROUTINE
 MAXIMUM OF     20 INTERNAL ITERATIONS PER CALL TO SOLUTION ROUTINE
 MATRIX PRECONDITIONING TYPE :    1



                                    SOLUTION BY THE CONJUGATE-GRADIENT METHOD
                                   -------------------------------------------
                    MAXIMUM NUMBER OF CALLS TO PCG ROUTINE =      150
                        MAXIMUM ITERATIONS PER CALL TO PCG =       20
                               MATRIX PRECONDITIONING TYPE =        1
        RELAXATION FACTOR (ONLY USED WITH PRECOND. TYPE 1) =    0.98000E+00
 PARAMETER OF POLYNOMIAL PRECOND. = 2 (2) OR IS CALCULATED :        1
                         HEAD CHANGE CRITERION FOR CLOSURE =    0.10000E-03
                     RESIDUAL CHANGE CRITERION FOR CLOSURE =    0.10000E+02
            PCG HEAD AND RESIDUAL CHANGE PRINTOUT INTERVAL =        1
     PRINTING FROM SOLVER IS LIMITED(1) OR SUPPRESSED (>1) =        0
                            STEADY-STATE DAMPING PARAMETER =    0.10000E+01
                               TRANSIENT DAMPING PARAMETER =    0.10000E+01
1
                            STRESS PERIOD NO.    1, LENGTH =   0.000000    
                            -----------------------------------------------

                              NUMBER OF TIME STEPS =     1

                               MULTIPLIER FOR DELT =     1.000

                            INITIAL TIME STEP SIZE =   0.000000    
  DATA IDENTIFIED AS GCD

 OPENING FILE ON UNIT   99:
 P:\1206764-IMOD\IMOD30\TESTBANK\RUNS\TEST_ALL\WELLS\IMODFLOW_WELL1.IPF                                                                                                                                  
  FILE IDENTIFIED AS IPF

 OPENING FILE ON UNIT   99:
 P:\1206764-IMOD\IMOD30\TESTBANK\RUNS\TEST_ALL\WELLS\IMODFLOW_WELL2.IPF                                                                                                                                  
  FILE IDENTIFIED AS IPF

      2 WELLS
 
 SOLVING FOR HEAD 
 
 SOLVING FOR HEAD 
 
 SOLVING FOR HEAD 
 
 SOLVING FOR HEAD 
 
 SOLVING FOR HEAD 


     5 CALLS TO PCG ROUTINE FOR TIME STEP   1 IN STRESS PERIOD    1
    75 TOTAL ITERATIONS

 MAXIMUM HEAD CHANGE FOR EACH ITERATION (1 INDICATES THE FIRST INNER ITERATION):

    HEAD CHANGE    HEAD CHANGE    HEAD CHANGE    HEAD CHANGE    HEAD CHANGE 
   LAYER,ROW,COL  LAYER,ROW,COL  LAYER,ROW,COL  LAYER,ROW,COL  LAYER,ROW,COL
 ---------------------------------------------------------------------------
  1  -14.14      0   7.278      0  -6.996      0  -4.276      0  -3.679    
   (  2, 74, 24)  (  2, 51, 50)  (  2, 51, 50)  (  2, 52, 49)  (  2, 53, 48)
  0  -2.294      0   1.488      0  -1.895      0  -1.089      0 -0.5944    
   (  2, 73, 28)  (  2, 54, 47)  (  2, 54, 47)  (  2, 55, 46)  (  2, 74, 27)
  0 -0.8241      0 -0.4588      0 -0.3199      0 -0.2584      0 -0.2811    
   (  2, 55, 46)  (  2, 56, 45)  (  2, 74, 27)  (  2, 56, 45)  (  2, 57, 44)
  0 -0.1860      0 -0.1477      0  0.1907      0  0.1815      0 -0.7502E-01
   (  2, 56, 45)  (  2, 70, 31)  (  2, 52, 49)  (  2, 51, 50)  (  2, 74, 27)
  1 -0.6964E-01  0 -0.5821E-01  0  0.8438E-01  0  0.4830E-01  0  0.5117E-01
   (  2, 72, 29)  (  2, 51, 50)  (  2, 51, 50)  (  2, 52, 49)  (  2, 58, 43)
  0  0.5675E-01  0  0.5843E-01  0  0.5951E-01  0  0.3233E-01  0  0.2979E-01
   (  2, 57, 44)  (  2, 51, 50)  (  2, 53, 48)  (  2, 57, 44)  (  2, 56, 45)
  0 -0.2191E-01  0  0.2109E-01  0  0.2037E-01  0 -0.1530E-01  0 -0.1316E-01
   (  2, 56, 45)  (  2, 56, 45)  (  2, 55, 46)  (  2, 55, 46)  (  2, 54, 47)
  0 -0.1666E-01  0  0.1224E-01  0  0.1579E-01  0 -0.8321E-02  0  0.4179E-02
   (  2, 52, 49)  (  2, 52, 49)  (  2, 51, 50)  (  2, 51, 50)  (  2, 58, 43)
  1 -0.3771E-02  0  0.4048E-02  0 -0.6783E-02  0  0.5754E-02  0  0.7691E-02
   (  2, 58, 43)  (  2, 51, 50)  (  2, 51, 50)  (  2, 51, 50)  (  2, 52, 49)
  0  0.6473E-02  0  0.5192E-02  0  0.3471E-02  0  0.5475E-02  0  0.4411E-02
   (  2, 54, 47)  (  2, 55, 46)  (  2, 69, 32)  (  2, 55, 46)  (  2, 56, 45)
  0  0.3297E-02  0  0.2637E-02  0  0.1989E-02  0  0.1319E-02  0  0.7943E-03
   (  2, 53, 48)  (  2, 51, 50)  (  2, 53, 48)  (  2, 57, 44)  (  2, 56, 45)
  0  0.9358E-03  0  0.5744E-03  0  0.8276E-03  0  0.7803E-03  0  0.3525E-03
   (  2, 57, 44)  (  2, 58, 43)  (  2, 52, 49)  (  2, 51, 50)  (  2, 72, 29)
  1 -0.4154E-03  0 -0.4775E-03  0 -0.4765E-03  0 -0.2769E-03  0 -0.3241E-03
   (  2, 72, 29)  (  2, 51, 50)  (  2, 52, 49)  (  2, 58, 43)  (  2, 57, 44)
  0  0.2549E-03  0 -0.2557E-03  0  0.1543E-03  0  0.3245E-03  0  0.2685E-03
   (  2, 57, 44)  (  2, 57, 44)  (  2,  9, 36)  (  2, 53, 48)  (  2, 51, 50)
  0  0.1555E-03  0  0.1426E-03  0  0.1333E-03  0 -0.6774E-04  1 -0.5864E-04
   (  2, 53, 48)  (  2, 56, 45)  (  2, 55, 46)  (  2, 55, 46)  (  2, 54, 47)

 MAXIMUM RESIDUAL FOR EACH ITERATION (1 INDICATES THE FIRST INNER ITERATION):

    RESIDUAL       RESIDUAL       RESIDUAL       RESIDUAL       RESIDUAL    
   LAYER,ROW,COL  LAYER,ROW,COL  LAYER,ROW,COL  LAYER,ROW,COL  LAYER,ROW,COL
 ---------------------------------------------------------------------------
  1  -332.2      0   405.3      0   286.0      0   313.9      0  -178.3    
   (  2, 74, 25)  (  2, 51, 50)  (  2, 52, 49)  (  2, 53, 48)  (  2, 53, 48)
  0   139.1      0   119.0      0   104.8      0  -52.86      0   52.32    
   (  2, 74, 27)  (  2, 54, 47)  (  2, 73, 28)  (  2, 55, 46)  (  2, 55, 46)
  0  -44.12      0   26.58      0   16.52      0   18.86      0  -18.85    
   (  2, 55, 46)  (  2, 74, 27)  (  2, 56, 45)  (  2, 57, 44)  (  2, 57, 44)
  0   12.79      0  -11.31      0   20.48      0  -6.432      0   5.795    
   (  2, 57, 44)  (  2, 52, 49)  (  2, 52, 49)  (  2, 72, 29)  (  2, 72, 29)
  1  -4.466      0   7.919      0  -5.769      0   4.579      0  -4.819    
   (  2, 72, 29)  (  2, 52, 49)  (  2, 52, 49)  (  2, 57, 44)  (  2, 57, 44)
  0   3.554      0  -5.160      0   2.800      0  -1.733      0   1.893    
   (  2, 57, 44)  (  2, 53, 48)  (  2, 53, 48)  (  2, 56, 45)  (  2, 56, 45)
  0  -1.748      0  -1.436      0   1.058      0 -0.8504      0 -0.8862    
   (  2, 56, 45)  (  2, 55, 46)  (  2, 55, 46)  (  2, 55, 46)  (  2, 54, 47)
  0  -1.239      0  0.8941      0 -0.4006      0 -0.2894      0 -0.2889    
   (  2, 52, 49)  (  2, 52, 49)  (  2, 54, 47)  (  2, 58, 43)  (  2, 59, 42)
  1  0.2330      0 -0.1453      0 -0.3043      0 -0.5024      0 -0.3402    
   (  2, 59, 42)  (  2, 59, 42)  (  2, 51, 50)  (  2, 52, 49)  (  2, 54, 47)
  0  0.2627      0  0.2445      0 -0.3042      0  0.2876      0  0.1915    
   (  2, 54, 47)  (  2, 55, 46)  (  2, 55, 46)  (  2, 55, 46)  (  2, 56, 45)
  0  0.2536      0 -0.1419      0  0.8504E-01  0  0.6501E-01  0 -0.7203E-01
   (  2, 53, 48)  (  2, 53, 48)  (  2, 56, 45)  (  2, 57, 44)  (  2, 57, 44)
  0  0.6417E-01  0 -0.4280E-01  0  0.9543E-01  0 -0.3159E-01  0  0.3603E-01
   (  2, 57, 44)  (  2, 52, 49)  (  2, 52, 49)  (  2, 58, 43)  (  2, 72, 29)
  1 -0.2874E-01  0  0.5162E-01  0 -0.2678E-01  0  0.2401E-01  0 -0.2521E-01
   (  2, 72, 29)  (  2, 52, 49)  (  2, 52, 49)  (  2, 57, 44)  (  2, 57, 44)
  0  0.2129E-01  0  0.1457E-01  0 -0.1565E-01  0  0.2465E-01  0  0.1180E-01
   (  2, 57, 44)  (  2, 56, 45)  (  2, 53, 48)  (  2, 53, 48)  (  2, 56, 45)
  0  0.1230E-01  0 -0.8813E-02  0  0.5803E-02  0 -0.4176E-02  1 -0.4244E-02
   (  2, 55, 46)  (  2, 55, 46)  (  2, 55, 46)  (  2, 55, 46)  (  2, 54, 47)



 OUTPUT CONTROL FOR STRESS PERIOD    1   TIME STEP   1
    SAVE HEAD FOR ALL LAYERS
    SAVE BUDGET
    SAVE BUDGET
 INFO. Sign of cbc-flux FLOW RIGHT FACE is swapped!
 INFO. Sign of cbc-flux FLOW FRONT FACE is swapped!
 INFO. Sign of cbc-flux FLOW LOWER FACE is swapped!

 HEAD WILL BE SAVED ON UNIT   28 AT END OF TIME STEP   1, STRESS PERIOD    1
1
  VOLUMETRIC BUDGET FOR ENTIRE MODEL AT END OF TIME STEP  1 IN STRESS PERIOD   1
  ------------------------------------------------------------------------------

     CUMULATIVE VOLUMES      L**3       RATES FOR THIS TIME STEP      L**3/T
     ------------------                 ------------------------

           IN:                                      IN:
           ---                                      ---
             STORAGE =           0.0000               STORAGE =           0.0000
       CONSTANT HEAD =           0.0000         CONSTANT HEAD =        5000.0708
               WELLS =           0.0000                 WELLS =           0.0000

            TOTAL IN =           0.0000              TOTAL IN =        5000.0708

          OUT:                                     OUT:
          ----                                     ----
             STORAGE =           0.0000               STORAGE =           0.0000
       CONSTANT HEAD =           0.0000         CONSTANT HEAD =           0.0000
               WELLS =           0.0000                 WELLS =        5000.0000

           TOTAL OUT =           0.0000             TOTAL OUT =        5000.0000

            IN - OUT =           0.0000              IN - OUT =       7.0801E-02

 PERCENT DISCREPANCY =           0.00     PERCENT DISCREPANCY =           0.00






          TIME SUMMARY AT END OF TIME STEP   1 IN STRESS PERIOD    1
                    SECONDS     MINUTES      HOURS       DAYS        YEARS
                    -----------------------------------------------------------
   TIME STEP LENGTH  0.0000      0.0000      0.0000      0.0000      0.0000    
 STRESS PERIOD TIME  0.0000      0.0000      0.0000      0.0000      0.0000    
         TOTAL TIME  0.0000      0.0000      0.0000      0.0000      0.0000    
1

 Run end date and time (yyyy/mm/dd hh:mm:ss): 2014/06/10 10:29:01
 Elapsed run time:  0.996 Seconds

