                                  SEAWAT Version 4
      U.S. GEOLOGICAL SURVEY MODULAR FINITE-DIFFERENCE GROUND-WATER FLOW MODEL
                           VERSION 4.00.05 10/19/2012


 This model run combines GLOBAL and LIST output into this single file.

 GLOBAL LISTING FILE: imod-wq_tmp/seawat1.list
                         UNIT   10

 OPENING imod-wq_tmp/seawat1.bas6
 FILE TYPE:BAS6   UNIT   11   STATUS:OLD    
 FORMAT:FORMATTED              ACCESS:SEQUENTIAL          

 OPENING imod-wq_tmp/seawat1.dis
 FILE TYPE:DIS   UNIT   15   STATUS:OLD    
 FORMAT:FORMATTED              ACCESS:SEQUENTIAL          

 OPENING imod-wq_tmp/seawat1.lpf
 FILE TYPE:LPF   UNIT   20   STATUS:OLD    
 FORMAT:FORMATTED              ACCESS:SEQUENTIAL          

 OPENING imod-wq_tmp/seawat1.oc
 FILE TYPE:OC   UNIT   21   STATUS:OLD    
 FORMAT:FORMATTED              ACCESS:SEQUENTIAL          

 OPENING imod-wq_tmp/seawat1.pcg
 FILE TYPE:PCG   UNIT   22   STATUS:OLD    
 FORMAT:FORMATTED              ACCESS:SEQUENTIAL          

 OPENING imod-wq_tmp/seawat1.rch
 FILE TYPE:RCH   UNIT   23   STATUS:OLD    
 FORMAT:FORMATTED              ACCESS:SEQUENTIAL          

 OPENING imod-wq_tmp/seawat1.vdf
 FILE TYPE:VDF   UNIT   26   STATUS:OLD    
 FORMAT:FORMATTED              ACCESS:SEQUENTIAL          

 OPENING imod-wq_tmp/seawat1.adv
 FILE TYPE:ADV   UNIT   29   STATUS:OLD    
 FORMAT:FORMATTED              ACCESS:SEQUENTIAL          

 OPENING imod-wq_tmp/seawat1.btn
 FILE TYPE:BTN   UNIT   30   STATUS:OLD    
 FORMAT:FORMATTED              ACCESS:SEQUENTIAL          

 OPENING imod-wq_tmp/seawat1.dsp
 FILE TYPE:DSP   UNIT   31   STATUS:OLD    
 FORMAT:FORMATTED              ACCESS:SEQUENTIAL          

 OPENING imod-wq_tmp/seawat1.gcg
 FILE TYPE:GCG   UNIT   33   STATUS:OLD    
 FORMAT:FORMATTED              ACCESS:SEQUENTIAL          

 OPENING imod-wq_tmp/seawat1.ssm
 FILE TYPE:SSM   UNIT   35   STATUS:OLD    
 FORMAT:FORMATTED              ACCESS:SEQUENTIAL          

 OPENING imod-wq_tmp/seawat1.met
 FILE TYPE:MET   UNIT   39   STATUS:OLD    
 FORMAT:FORMATTED              ACCESS:SEQUENTIAL          

 OPENING C:\IMOD5\IMOD5\TUTORIALS\TUT_iMOD-WQ_SEAWAT\DBASE\top\top_l1.idf
 FILE TYPE:DATA(IDF)   UNIT   42   STATUS:UNKNOWN
 FORMAT:FORMATTED              ACCESS:SEQUENTIAL          

 OPENING C:\IMOD5\IMOD5\TUTORIALS\TUT_iMOD-WQ_SEAWAT\DBASE\btn\thickness_l1.idf
 FILE TYPE:DATA(IDF)   UNIT   43   STATUS:UNKNOWN
 FORMAT:FORMATTED              ACCESS:SEQUENTIAL          

 OPENING C:\IMOD5\IMOD5\TUTORIALS\TUT_iMOD-WQ_SEAWAT\DBASE\btn\thickness_l2.idf
 FILE TYPE:DATA(IDF)   UNIT   44   STATUS:UNKNOWN
 FORMAT:FORMATTED              ACCESS:SEQUENTIAL          

 OPENING C:\IMOD5\IMOD5\TUTORIALS\TUT_iMOD-WQ_SEAWAT\DBASE\btn\thickness_l3.idf
 FILE TYPE:DATA(IDF)   UNIT   45   STATUS:UNKNOWN
 FORMAT:FORMATTED              ACCESS:SEQUENTIAL          

 OPENING C:\IMOD5\IMOD5\TUTORIALS\TUT_iMOD-WQ_SEAWAT\DBASE\btn\thickness_l4.idf
 FILE TYPE:DATA(IDF)   UNIT   46   STATUS:UNKNOWN
 FORMAT:FORMATTED              ACCESS:SEQUENTIAL          

 OPENING C:\IMOD5\IMOD5\TUTORIALS\TUT_iMOD-WQ_SEAWAT\DBASE\btn\thickness_l5.idf
 FILE TYPE:DATA(IDF)   UNIT   47   STATUS:UNKNOWN
 FORMAT:FORMATTED              ACCESS:SEQUENTIAL          

 OPENING C:\IMOD5\IMOD5\TUTORIALS\TUT_iMOD-WQ_SEAWAT\DBASE\btn\thickness_l6.idf
 FILE TYPE:DATA(IDF)   UNIT   48   STATUS:UNKNOWN
 FORMAT:FORMATTED              ACCESS:SEQUENTIAL          

 OPENING C:\IMOD5\IMOD5\TUTORIALS\TUT_iMOD-WQ_SEAWAT\DBASE\btn\thickness_l7.idf
 FILE TYPE:DATA(IDF)   UNIT   49   STATUS:UNKNOWN
 FORMAT:FORMATTED              ACCESS:SEQUENTIAL          

 OPENING C:\IMOD5\IMOD5\TUTORIALS\TUT_iMOD-WQ_SEAWAT\DBASE\btn\thickness_l8.idf
 FILE TYPE:DATA(IDF)   UNIT   50   STATUS:UNKNOWN
 FORMAT:FORMATTED              ACCESS:SEQUENTIAL          

 OPENING C:\IMOD5\IMOD5\TUTORIALS\TUT_iMOD-WQ_SEAWAT\DBASE\btn\thickness_l9.idf
 FILE TYPE:DATA(IDF)   UNIT   51   STATUS:UNKNOWN
 FORMAT:FORMATTED              ACCESS:SEQUENTIAL          

 OPENING C:\IMOD5\IMOD5\TUTORIALS\TUT_iMOD-WQ_SEAWAT\DBASE\btn\thickness_l10.idf
 FILE TYPE:DATA(IDF)   UNIT   52   STATUS:UNKNOWN
 FORMAT:FORMATTED              ACCESS:SEQUENTIAL          

 OPENING C:\IMOD5\IMOD5\TUTORIALS\TUT_iMOD-WQ_SEAWAT\DBASE\btn\thickness_l11.idf
 FILE TYPE:DATA(IDF)   UNIT   53   STATUS:UNKNOWN
 FORMAT:FORMATTED              ACCESS:SEQUENTIAL          

 OPENING C:\IMOD5\IMOD5\TUTORIALS\TUT_iMOD-WQ_SEAWAT\DBASE\btn\thickness_l12.idf
 FILE TYPE:DATA(IDF)   UNIT   54   STATUS:UNKNOWN
 FORMAT:FORMATTED              ACCESS:SEQUENTIAL          

 OPENING C:\IMOD5\IMOD5\TUTORIALS\TUT_iMOD-WQ_SEAWAT\DBASE\btn\thickness_l13.idf
 FILE TYPE:DATA(IDF)   UNIT   55   STATUS:UNKNOWN
 FORMAT:FORMATTED              ACCESS:SEQUENTIAL          

 OPENING C:\IMOD5\IMOD5\TUTORIALS\TUT_iMOD-WQ_SEAWAT\DBASE\btn\thickness_l14.idf
 FILE TYPE:DATA(IDF)   UNIT   56   STATUS:UNKNOWN
 FORMAT:FORMATTED              ACCESS:SEQUENTIAL          

 OPENING C:\IMOD5\IMOD5\TUTORIALS\TUT_iMOD-WQ_SEAWAT\DBASE\btn\thickness_l15.idf
 FILE TYPE:DATA(IDF)   UNIT   57   STATUS:UNKNOWN
 FORMAT:FORMATTED              ACCESS:SEQUENTIAL          

 OPENING C:\IMOD5\IMOD5\TUTORIALS\TUT_iMOD-WQ_SEAWAT\DBASE\btn\thickness_l16.idf
 FILE TYPE:DATA(IDF)   UNIT   58   STATUS:UNKNOWN
 FORMAT:FORMATTED              ACCESS:SEQUENTIAL          

 OPENING C:\IMOD5\IMOD5\TUTORIALS\TUT_iMOD-WQ_SEAWAT\DBASE\btn\thickness_l17.idf
 FILE TYPE:DATA(IDF)   UNIT   59   STATUS:UNKNOWN
 FORMAT:FORMATTED              ACCESS:SEQUENTIAL          

 OPENING C:\IMOD5\IMOD5\TUTORIALS\TUT_iMOD-WQ_SEAWAT\DBASE\btn\thickness_l18.idf
 FILE TYPE:DATA(IDF)   UNIT   60   STATUS:UNKNOWN
 FORMAT:FORMATTED              ACCESS:SEQUENTIAL          

 OPENING C:\IMOD5\IMOD5\TUTORIALS\TUT_iMOD-WQ_SEAWAT\DBASE\btn\thickness_l19.idf
 FILE TYPE:DATA(IDF)   UNIT   61   STATUS:UNKNOWN
 FORMAT:FORMATTED              ACCESS:SEQUENTIAL          

 OPENING C:\IMOD5\IMOD5\TUTORIALS\TUT_iMOD-WQ_SEAWAT\DBASE\btn\thickness_l20.idf
 FILE TYPE:DATA(IDF)   UNIT   62   STATUS:UNKNOWN
 FORMAT:FORMATTED              ACCESS:SEQUENTIAL          

 OPENING C:\IMOD5\IMOD5\TUTORIALS\TUT_iMOD-WQ_SEAWAT\DBASE\btn\thickness_l21.idf
 FILE TYPE:DATA(IDF)   UNIT   63   STATUS:UNKNOWN
 FORMAT:FORMATTED              ACCESS:SEQUENTIAL          

 OPENING C:\IMOD5\IMOD5\TUTORIALS\TUT_iMOD-WQ_SEAWAT\DBASE\btn\thickness_l22.idf
 FILE TYPE:DATA(IDF)   UNIT   64   STATUS:UNKNOWN
 FORMAT:FORMATTED              ACCESS:SEQUENTIAL          

 OPENING C:\IMOD5\IMOD5\TUTORIALS\TUT_iMOD-WQ_SEAWAT\DBASE\btn\thickness_l23.idf
 FILE TYPE:DATA(IDF)   UNIT   65   STATUS:UNKNOWN
 FORMAT:FORMATTED              ACCESS:SEQUENTIAL          

 OPENING C:\IMOD5\IMOD5\TUTORIALS\TUT_iMOD-WQ_SEAWAT\DBASE\btn\thickness_l24.idf
 FILE TYPE:DATA(IDF)   UNIT   66   STATUS:UNKNOWN
 FORMAT:FORMATTED              ACCESS:SEQUENTIAL          

 OPENING C:\IMOD5\IMOD5\TUTORIALS\TUT_iMOD-WQ_SEAWAT\DBASE\btn\thickness_l25.idf
 FILE TYPE:DATA(IDF)   UNIT   67   STATUS:UNKNOWN
 FORMAT:FORMATTED              ACCESS:SEQUENTIAL          

 OPENING C:\IMOD5\IMOD5\TUTORIALS\TUT_iMOD-WQ_SEAWAT\DBASE\btn\thickness_l26.idf
 FILE TYPE:DATA(IDF)   UNIT   68   STATUS:UNKNOWN
 FORMAT:FORMATTED              ACCESS:SEQUENTIAL          

 OPENING C:\IMOD5\IMOD5\TUTORIALS\TUT_iMOD-WQ_SEAWAT\DBASE\btn\thickness_l27.idf
 FILE TYPE:DATA(IDF)   UNIT   69   STATUS:UNKNOWN
 FORMAT:FORMATTED              ACCESS:SEQUENTIAL          

 OPENING C:\IMOD5\IMOD5\TUTORIALS\TUT_iMOD-WQ_SEAWAT\DBASE\btn\thickness_l28.idf
 FILE TYPE:DATA(IDF)   UNIT   70   STATUS:UNKNOWN
 FORMAT:FORMATTED              ACCESS:SEQUENTIAL          

 OPENING C:\IMOD5\IMOD5\TUTORIALS\TUT_iMOD-WQ_SEAWAT\DBASE\btn\thickness_l29.idf
 FILE TYPE:DATA(IDF)   UNIT   71   STATUS:UNKNOWN
 FORMAT:FORMATTED              ACCESS:SEQUENTIAL          

 OPENING C:\IMOD5\IMOD5\TUTORIALS\TUT_iMOD-WQ_SEAWAT\DBASE\btn\thickness_l30.idf
 FILE TYPE:DATA(IDF)   UNIT   72   STATUS:UNKNOWN
 FORMAT:FORMATTED              ACCESS:SEQUENTIAL          

 OPENING C:\IMOD5\IMOD5\TUTORIALS\TUT_iMOD-WQ_SEAWAT\DBASE\btn\porosity_l1.idf
 FILE TYPE:DATA(IDF)   UNIT   73   STATUS:UNKNOWN
 FORMAT:FORMATTED              ACCESS:SEQUENTIAL          

 OPENING C:\IMOD5\IMOD5\TUTORIALS\TUT_iMOD-WQ_SEAWAT\DBASE\btn\porosity_l2.idf
 FILE TYPE:DATA(IDF)   UNIT   74   STATUS:UNKNOWN
 FORMAT:FORMATTED              ACCESS:SEQUENTIAL          

 OPENING C:\IMOD5\IMOD5\TUTORIALS\TUT_iMOD-WQ_SEAWAT\DBASE\btn\porosity_l3.idf
 FILE TYPE:DATA(IDF)   UNIT   75   STATUS:UNKNOWN
 FORMAT:FORMATTED              ACCESS:SEQUENTIAL          

 OPENING C:\IMOD5\IMOD5\TUTORIALS\TUT_iMOD-WQ_SEAWAT\DBASE\btn\porosity_l4.idf
 FILE TYPE:DATA(IDF)   UNIT   76   STATUS:UNKNOWN
 FORMAT:FORMATTED              ACCESS:SEQUENTIAL          

 OPENING C:\IMOD5\IMOD5\TUTORIALS\TUT_iMOD-WQ_SEAWAT\DBASE\btn\porosity_l5.idf
 FILE TYPE:DATA(IDF)   UNIT   77   STATUS:UNKNOWN
 FORMAT:FORMATTED              ACCESS:SEQUENTIAL          

 OPENING C:\IMOD5\IMOD5\TUTORIALS\TUT_iMOD-WQ_SEAWAT\DBASE\btn\porosity_l6.idf
 FILE TYPE:DATA(IDF)   UNIT   78   STATUS:UNKNOWN
 FORMAT:FORMATTED              ACCESS:SEQUENTIAL          

 OPENING C:\IMOD5\IMOD5\TUTORIALS\TUT_iMOD-WQ_SEAWAT\DBASE\btn\porosity_l7.idf
 FILE TYPE:DATA(IDF)   UNIT   79   STATUS:UNKNOWN
 FORMAT:FORMATTED              ACCESS:SEQUENTIAL          

 OPENING C:\IMOD5\IMOD5\TUTORIALS\TUT_iMOD-WQ_SEAWAT\DBASE\btn\porosity_l8.idf
 FILE TYPE:DATA(IDF)   UNIT   80   STATUS:UNKNOWN
 FORMAT:FORMATTED              ACCESS:SEQUENTIAL          

 OPENING C:\IMOD5\IMOD5\TUTORIALS\TUT_iMOD-WQ_SEAWAT\DBASE\btn\porosity_l9.idf
 FILE TYPE:DATA(IDF)   UNIT   81   STATUS:UNKNOWN
 FORMAT:FORMATTED              ACCESS:SEQUENTIAL          

 OPENING C:\IMOD5\IMOD5\TUTORIALS\TUT_iMOD-WQ_SEAWAT\DBASE\btn\porosity_l10.idf
 FILE TYPE:DATA(IDF)   UNIT   82   STATUS:UNKNOWN
 FORMAT:FORMATTED              ACCESS:SEQUENTIAL          

 OPENING C:\IMOD5\IMOD5\TUTORIALS\TUT_iMOD-WQ_SEAWAT\DBASE\btn\porosity_l11.idf
 FILE TYPE:DATA(IDF)   UNIT   83   STATUS:UNKNOWN
 FORMAT:FORMATTED              ACCESS:SEQUENTIAL          

 OPENING C:\IMOD5\IMOD5\TUTORIALS\TUT_iMOD-WQ_SEAWAT\DBASE\btn\porosity_l12.idf
 FILE TYPE:DATA(IDF)   UNIT   84   STATUS:UNKNOWN
 FORMAT:FORMATTED              ACCESS:SEQUENTIAL          

 OPENING C:\IMOD5\IMOD5\TUTORIALS\TUT_iMOD-WQ_SEAWAT\DBASE\btn\porosity_l13.idf
 FILE TYPE:DATA(IDF)   UNIT   85   STATUS:UNKNOWN
 FORMAT:FORMATTED              ACCESS:SEQUENTIAL          

 OPENING C:\IMOD5\IMOD5\TUTORIALS\TUT_iMOD-WQ_SEAWAT\DBASE\btn\porosity_l14.idf
 FILE TYPE:DATA(IDF)   UNIT   86   STATUS:UNKNOWN
 FORMAT:FORMATTED              ACCESS:SEQUENTIAL          

 OPENING C:\IMOD5\IMOD5\TUTORIALS\TUT_iMOD-WQ_SEAWAT\DBASE\btn\porosity_l15.idf
 FILE TYPE:DATA(IDF)   UNIT   87   STATUS:UNKNOWN
 FORMAT:FORMATTED              ACCESS:SEQUENTIAL          

 OPENING C:\IMOD5\IMOD5\TUTORIALS\TUT_iMOD-WQ_SEAWAT\DBASE\btn\porosity_l16.idf
 FILE TYPE:DATA(IDF)   UNIT   88   STATUS:UNKNOWN
 FORMAT:FORMATTED              ACCESS:SEQUENTIAL          

 OPENING C:\IMOD5\IMOD5\TUTORIALS\TUT_iMOD-WQ_SEAWAT\DBASE\btn\porosity_l17.idf
 FILE TYPE:DATA(IDF)   UNIT   89   STATUS:UNKNOWN
 FORMAT:FORMATTED              ACCESS:SEQUENTIAL          

 OPENING C:\IMOD5\IMOD5\TUTORIALS\TUT_iMOD-WQ_SEAWAT\DBASE\btn\porosity_l18.idf
 FILE TYPE:DATA(IDF)   UNIT   90   STATUS:UNKNOWN
 FORMAT:FORMATTED              ACCESS:SEQUENTIAL          

 OPENING C:\IMOD5\IMOD5\TUTORIALS\TUT_iMOD-WQ_SEAWAT\DBASE\btn\porosity_l19.idf
 FILE TYPE:DATA(IDF)   UNIT   91   STATUS:UNKNOWN
 FORMAT:FORMATTED              ACCESS:SEQUENTIAL          

 OPENING C:\IMOD5\IMOD5\TUTORIALS\TUT_iMOD-WQ_SEAWAT\DBASE\btn\porosity_l20.idf
 FILE TYPE:DATA(IDF)   UNIT   92   STATUS:UNKNOWN
 FORMAT:FORMATTED              ACCESS:SEQUENTIAL          

 OPENING C:\IMOD5\IMOD5\TUTORIALS\TUT_iMOD-WQ_SEAWAT\DBASE\btn\porosity_l21.idf
 FILE TYPE:DATA(IDF)   UNIT   93   STATUS:UNKNOWN
 FORMAT:FORMATTED              ACCESS:SEQUENTIAL          

 OPENING C:\IMOD5\IMOD5\TUTORIALS\TUT_iMOD-WQ_SEAWAT\DBASE\btn\porosity_l22.idf
 FILE TYPE:DATA(IDF)   UNIT   94   STATUS:UNKNOWN
 FORMAT:FORMATTED              ACCESS:SEQUENTIAL          

 OPENING C:\IMOD5\IMOD5\TUTORIALS\TUT_iMOD-WQ_SEAWAT\DBASE\btn\porosity_l23.idf
 FILE TYPE:DATA(IDF)   UNIT   95   STATUS:UNKNOWN
 FORMAT:FORMATTED              ACCESS:SEQUENTIAL          

 OPENING C:\IMOD5\IMOD5\TUTORIALS\TUT_iMOD-WQ_SEAWAT\DBASE\btn\porosity_l24.idf
 FILE TYPE:DATA(IDF)   UNIT   96   STATUS:UNKNOWN
 FORMAT:FORMATTED              ACCESS:SEQUENTIAL          

 OPENING C:\IMOD5\IMOD5\TUTORIALS\TUT_iMOD-WQ_SEAWAT\DBASE\btn\porosity_l25.idf
 FILE TYPE:DATA(IDF)   UNIT   97   STATUS:UNKNOWN
 FORMAT:FORMATTED              ACCESS:SEQUENTIAL          

 OPENING C:\IMOD5\IMOD5\TUTORIALS\TUT_iMOD-WQ_SEAWAT\DBASE\btn\porosity_l26.idf
 FILE TYPE:DATA(IDF)   UNIT   98   STATUS:UNKNOWN
 FORMAT:FORMATTED              ACCESS:SEQUENTIAL          

 OPENING C:\IMOD5\IMOD5\TUTORIALS\TUT_iMOD-WQ_SEAWAT\DBASE\btn\porosity_l27.idf
 FILE TYPE:DATA(IDF)   UNIT  104   STATUS:UNKNOWN
 FORMAT:FORMATTED              ACCESS:SEQUENTIAL          

 OPENING C:\IMOD5\IMOD5\TUTORIALS\TUT_iMOD-WQ_SEAWAT\DBASE\btn\porosity_l28.idf
 FILE TYPE:DATA(IDF)   UNIT  105   STATUS:UNKNOWN
 FORMAT:FORMATTED              ACCESS:SEQUENTIAL          

 OPENING C:\IMOD5\IMOD5\TUTORIALS\TUT_iMOD-WQ_SEAWAT\DBASE\btn\porosity_l29.idf
 FILE TYPE:DATA(IDF)   UNIT  106   STATUS:UNKNOWN
 FORMAT:FORMATTED              ACCESS:SEQUENTIAL          

 OPENING C:\IMOD5\IMOD5\TUTORIALS\TUT_iMOD-WQ_SEAWAT\DBASE\btn\porosity_l30.idf
 FILE TYPE:DATA(IDF)   UNIT  107   STATUS:UNKNOWN
 FORMAT:FORMATTED              ACCESS:SEQUENTIAL          

 OPENING C:\iMOD5\iMOD5\TUTORIALS\TUT_iMOD-WQ_SEAWAT\DBASE\btn\icbund_l1.idf
 FILE TYPE:DATA(IDF)   UNIT  108   STATUS:UNKNOWN
 FORMAT:FORMATTED              ACCESS:SEQUENTIAL          

 OPENING C:\iMOD5\iMOD5\TUTORIALS\TUT_iMOD-WQ_SEAWAT\DBASE\btn\icbund_l2.idf
 FILE TYPE:DATA(IDF)   UNIT  109   STATUS:UNKNOWN
 FORMAT:FORMATTED              ACCESS:SEQUENTIAL          

 OPENING C:\iMOD5\iMOD5\TUTORIALS\TUT_iMOD-WQ_SEAWAT\DBASE\btn\icbund_l3.idf
 FILE TYPE:DATA(IDF)   UNIT  110   STATUS:UNKNOWN
 FORMAT:FORMATTED              ACCESS:SEQUENTIAL          

 OPENING C:\iMOD5\iMOD5\TUTORIALS\TUT_iMOD-WQ_SEAWAT\DBASE\btn\icbund_l4.idf
 FILE TYPE:DATA(IDF)   UNIT  111   STATUS:UNKNOWN
 FORMAT:FORMATTED              ACCESS:SEQUENTIAL          

 OPENING C:\iMOD5\iMOD5\TUTORIALS\TUT_iMOD-WQ_SEAWAT\DBASE\btn\icbund_l5.idf
 FILE TYPE:DATA(IDF)   UNIT  112   STATUS:UNKNOWN
 FORMAT:FORMATTED              ACCESS:SEQUENTIAL          

 OPENING C:\iMOD5\iMOD5\TUTORIALS\TUT_iMOD-WQ_SEAWAT\DBASE\btn\icbund_l6.idf
 FILE TYPE:DATA(IDF)   UNIT  113   STATUS:UNKNOWN
 FORMAT:FORMATTED              ACCESS:SEQUENTIAL          

 OPENING C:\iMOD5\iMOD5\TUTORIALS\TUT_iMOD-WQ_SEAWAT\DBASE\btn\icbund_l7.idf
 FILE TYPE:DATA(IDF)   UNIT  114   STATUS:UNKNOWN
 FORMAT:FORMATTED              ACCESS:SEQUENTIAL          

 OPENING C:\iMOD5\iMOD5\TUTORIALS\TUT_iMOD-WQ_SEAWAT\DBASE\btn\icbund_l8.idf
 FILE TYPE:DATA(IDF)   UNIT  115   STATUS:UNKNOWN
 FORMAT:FORMATTED              ACCESS:SEQUENTIAL          

 OPENING C:\iMOD5\iMOD5\TUTORIALS\TUT_iMOD-WQ_SEAWAT\DBASE\btn\icbund_l9.idf
 FILE TYPE:DATA(IDF)   UNIT  116   STATUS:UNKNOWN
 FORMAT:FORMATTED              ACCESS:SEQUENTIAL          

 OPENING C:\iMOD5\iMOD5\TUTORIALS\TUT_iMOD-WQ_SEAWAT\DBASE\btn\icbund_l10.idf
 FILE TYPE:DATA(IDF)   UNIT  117   STATUS:UNKNOWN
 FORMAT:FORMATTED              ACCESS:SEQUENTIAL          

 OPENING C:\iMOD5\iMOD5\TUTORIALS\TUT_iMOD-WQ_SEAWAT\DBASE\btn\icbund_l11.idf
 FILE TYPE:DATA(IDF)   UNIT  118   STATUS:UNKNOWN
 FORMAT:FORMATTED              ACCESS:SEQUENTIAL          

 OPENING C:\iMOD5\iMOD5\TUTORIALS\TUT_iMOD-WQ_SEAWAT\DBASE\btn\icbund_l12.idf
 FILE TYPE:DATA(IDF)   UNIT  119   STATUS:UNKNOWN
 FORMAT:FORMATTED              ACCESS:SEQUENTIAL          

 OPENING C:\iMOD5\iMOD5\TUTORIALS\TUT_iMOD-WQ_SEAWAT\DBASE\btn\icbund_l13.idf
 FILE TYPE:DATA(IDF)   UNIT  120   STATUS:UNKNOWN
 FORMAT:FORMATTED              ACCESS:SEQUENTIAL          

 OPENING C:\iMOD5\iMOD5\TUTORIALS\TUT_iMOD-WQ_SEAWAT\DBASE\btn\icbund_l14.idf
 FILE TYPE:DATA(IDF)   UNIT  121   STATUS:UNKNOWN
 FORMAT:FORMATTED              ACCESS:SEQUENTIAL          

 OPENING C:\iMOD5\iMOD5\TUTORIALS\TUT_iMOD-WQ_SEAWAT\DBASE\btn\icbund_l15.idf
 FILE TYPE:DATA(IDF)   UNIT  122   STATUS:UNKNOWN
 FORMAT:FORMATTED              ACCESS:SEQUENTIAL          

 OPENING C:\iMOD5\iMOD5\TUTORIALS\TUT_iMOD-WQ_SEAWAT\DBASE\btn\icbund_l16.idf
 FILE TYPE:DATA(IDF)   UNIT  123   STATUS:UNKNOWN
 FORMAT:FORMATTED              ACCESS:SEQUENTIAL          

 OPENING C:\iMOD5\iMOD5\TUTORIALS\TUT_iMOD-WQ_SEAWAT\DBASE\btn\icbund_l17.idf
 FILE TYPE:DATA(IDF)   UNIT  124   STATUS:UNKNOWN
 FORMAT:FORMATTED              ACCESS:SEQUENTIAL          

 OPENING C:\iMOD5\iMOD5\TUTORIALS\TUT_iMOD-WQ_SEAWAT\DBASE\btn\icbund_l18.idf
 FILE TYPE:DATA(IDF)   UNIT  125   STATUS:UNKNOWN
 FORMAT:FORMATTED              ACCESS:SEQUENTIAL          

 OPENING C:\iMOD5\iMOD5\TUTORIALS\TUT_iMOD-WQ_SEAWAT\DBASE\btn\icbund_l19.idf
 FILE TYPE:DATA(IDF)   UNIT  126   STATUS:UNKNOWN
 FORMAT:FORMATTED              ACCESS:SEQUENTIAL          

 OPENING C:\iMOD5\iMOD5\TUTORIALS\TUT_iMOD-WQ_SEAWAT\DBASE\btn\icbund_l20.idf
 FILE TYPE:DATA(IDF)   UNIT  127   STATUS:UNKNOWN
 FORMAT:FORMATTED              ACCESS:SEQUENTIAL          

 OPENING C:\iMOD5\iMOD5\TUTORIALS\TUT_iMOD-WQ_SEAWAT\DBASE\btn\icbund_l21.idf
 FILE TYPE:DATA(IDF)   UNIT  128   STATUS:UNKNOWN
 FORMAT:FORMATTED              ACCESS:SEQUENTIAL          

 OPENING C:\iMOD5\iMOD5\TUTORIALS\TUT_iMOD-WQ_SEAWAT\DBASE\btn\icbund_l22.idf
 FILE TYPE:DATA(IDF)   UNIT  129   STATUS:UNKNOWN
 FORMAT:FORMATTED              ACCESS:SEQUENTIAL          

 OPENING C:\iMOD5\iMOD5\TUTORIALS\TUT_iMOD-WQ_SEAWAT\DBASE\btn\icbund_l23.idf
 FILE TYPE:DATA(IDF)   UNIT  130   STATUS:UNKNOWN
 FORMAT:FORMATTED              ACCESS:SEQUENTIAL          

 OPENING C:\iMOD5\iMOD5\TUTORIALS\TUT_iMOD-WQ_SEAWAT\DBASE\btn\icbund_l24.idf
 FILE TYPE:DATA(IDF)   UNIT  131   STATUS:UNKNOWN
 FORMAT:FORMATTED              ACCESS:SEQUENTIAL          

 OPENING C:\iMOD5\iMOD5\TUTORIALS\TUT_iMOD-WQ_SEAWAT\DBASE\btn\icbund_l25.idf
 FILE TYPE:DATA(IDF)   UNIT  132   STATUS:UNKNOWN
 FORMAT:FORMATTED              ACCESS:SEQUENTIAL          

 OPENING C:\iMOD5\iMOD5\TUTORIALS\TUT_iMOD-WQ_SEAWAT\DBASE\btn\icbund_l26.idf
 FILE TYPE:DATA(IDF)   UNIT  133   STATUS:UNKNOWN
 FORMAT:FORMATTED              ACCESS:SEQUENTIAL          

 OPENING C:\iMOD5\iMOD5\TUTORIALS\TUT_iMOD-WQ_SEAWAT\DBASE\btn\icbund_l27.idf
 FILE TYPE:DATA(IDF)   UNIT  134   STATUS:UNKNOWN
 FORMAT:FORMATTED              ACCESS:SEQUENTIAL          

 OPENING C:\iMOD5\iMOD5\TUTORIALS\TUT_iMOD-WQ_SEAWAT\DBASE\btn\icbund_l28.idf
 FILE TYPE:DATA(IDF)   UNIT  135   STATUS:UNKNOWN
 FORMAT:FORMATTED              ACCESS:SEQUENTIAL          

 OPENING C:\iMOD5\iMOD5\TUTORIALS\TUT_iMOD-WQ_SEAWAT\DBASE\btn\icbund_l29.idf
 FILE TYPE:DATA(IDF)   UNIT  136   STATUS:UNKNOWN
 FORMAT:FORMATTED              ACCESS:SEQUENTIAL          

 OPENING C:\iMOD5\iMOD5\TUTORIALS\TUT_iMOD-WQ_SEAWAT\DBASE\btn\icbund_l30.idf
 FILE TYPE:DATA(IDF)   UNIT  137   STATUS:UNKNOWN
 FORMAT:FORMATTED              ACCESS:SEQUENTIAL          

 OPENING C:\iMOD5\iMOD5\TUTORIALS\TUT_iMOD-WQ_SEAWAT\DBASE\btn\starting_concentration_l1.idf
 FILE TYPE:DATA(IDF)   UNIT  138   STATUS:UNKNOWN
 FORMAT:FORMATTED              ACCESS:SEQUENTIAL          

 OPENING C:\iMOD5\iMOD5\TUTORIALS\TUT_iMOD-WQ_SEAWAT\DBASE\btn\starting_concentration_l2.idf
 FILE TYPE:DATA(IDF)   UNIT  139   STATUS:UNKNOWN
 FORMAT:FORMATTED              ACCESS:SEQUENTIAL          

 OPENING C:\iMOD5\iMOD5\TUTORIALS\TUT_iMOD-WQ_SEAWAT\DBASE\btn\starting_concentration_l3.idf
 FILE TYPE:DATA(IDF)   UNIT  140   STATUS:UNKNOWN
 FORMAT:FORMATTED              ACCESS:SEQUENTIAL          

 OPENING C:\iMOD5\iMOD5\TUTORIALS\TUT_iMOD-WQ_SEAWAT\DBASE\btn\starting_concentration_l4.idf
 FILE TYPE:DATA(IDF)   UNIT  141   STATUS:UNKNOWN
 FORMAT:FORMATTED              ACCESS:SEQUENTIAL          

 OPENING C:\iMOD5\iMOD5\TUTORIALS\TUT_iMOD-WQ_SEAWAT\DBASE\btn\starting_concentration_l5.idf
 FILE TYPE:DATA(IDF)   UNIT  142   STATUS:UNKNOWN
 FORMAT:FORMATTED              ACCESS:SEQUENTIAL          

 OPENING C:\iMOD5\iMOD5\TUTORIALS\TUT_iMOD-WQ_SEAWAT\DBASE\btn\starting_concentration_l6.idf
 FILE TYPE:DATA(IDF)   UNIT  143   STATUS:UNKNOWN
 FORMAT:FORMATTED              ACCESS:SEQUENTIAL          

 OPENING C:\iMOD5\iMOD5\TUTORIALS\TUT_iMOD-WQ_SEAWAT\DBASE\btn\starting_concentration_l7.idf
 FILE TYPE:DATA(IDF)   UNIT  144   STATUS:UNKNOWN
 FORMAT:FORMATTED              ACCESS:SEQUENTIAL          

 OPENING C:\iMOD5\iMOD5\TUTORIALS\TUT_iMOD-WQ_SEAWAT\DBASE\btn\starting_concentration_l8.idf
 FILE TYPE:DATA(IDF)   UNIT  145   STATUS:UNKNOWN
 FORMAT:FORMATTED              ACCESS:SEQUENTIAL          

 OPENING C:\iMOD5\iMOD5\TUTORIALS\TUT_iMOD-WQ_SEAWAT\DBASE\btn\starting_concentration_l9.idf
 FILE TYPE:DATA(IDF)   UNIT  146   STATUS:UNKNOWN
 FORMAT:FORMATTED              ACCESS:SEQUENTIAL          

 OPENING C:\iMOD5\iMOD5\TUTORIALS\TUT_iMOD-WQ_SEAWAT\DBASE\btn\starting_concentration_l10.idf
 FILE TYPE:DATA(IDF)   UNIT  147   STATUS:UNKNOWN
 FORMAT:FORMATTED              ACCESS:SEQUENTIAL          

 OPENING C:\iMOD5\iMOD5\TUTORIALS\TUT_iMOD-WQ_SEAWAT\DBASE\btn\starting_concentration_l11.idf
 FILE TYPE:DATA(IDF)   UNIT  148   STATUS:UNKNOWN
 FORMAT:FORMATTED              ACCESS:SEQUENTIAL          

 OPENING C:\iMOD5\iMOD5\TUTORIALS\TUT_iMOD-WQ_SEAWAT\DBASE\btn\starting_concentration_l12.idf
 FILE TYPE:DATA(IDF)   UNIT  149   STATUS:UNKNOWN
 FORMAT:FORMATTED              ACCESS:SEQUENTIAL          

 OPENING C:\iMOD5\iMOD5\TUTORIALS\TUT_iMOD-WQ_SEAWAT\DBASE\btn\starting_concentration_l13.idf
 FILE TYPE:DATA(IDF)   UNIT  150   STATUS:UNKNOWN
 FORMAT:FORMATTED              ACCESS:SEQUENTIAL          

 OPENING C:\iMOD5\iMOD5\TUTORIALS\TUT_iMOD-WQ_SEAWAT\DBASE\btn\starting_concentration_l14.idf
 FILE TYPE:DATA(IDF)   UNIT  151   STATUS:UNKNOWN
 FORMAT:FORMATTED              ACCESS:SEQUENTIAL          

 OPENING C:\iMOD5\iMOD5\TUTORIALS\TUT_iMOD-WQ_SEAWAT\DBASE\btn\starting_concentration_l15.idf
 FILE TYPE:DATA(IDF)   UNIT  152   STATUS:UNKNOWN
 FORMAT:FORMATTED              ACCESS:SEQUENTIAL          

 OPENING C:\iMOD5\iMOD5\TUTORIALS\TUT_iMOD-WQ_SEAWAT\DBASE\btn\starting_concentration_l16.idf
 FILE TYPE:DATA(IDF)   UNIT  153   STATUS:UNKNOWN
 FORMAT:FORMATTED              ACCESS:SEQUENTIAL          

 OPENING C:\iMOD5\iMOD5\TUTORIALS\TUT_iMOD-WQ_SEAWAT\DBASE\btn\starting_concentration_l17.idf
 FILE TYPE:DATA(IDF)   UNIT  154   STATUS:UNKNOWN
 FORMAT:FORMATTED              ACCESS:SEQUENTIAL          

 OPENING C:\iMOD5\iMOD5\TUTORIALS\TUT_iMOD-WQ_SEAWAT\DBASE\btn\starting_concentration_l18.idf
 FILE TYPE:DATA(IDF)   UNIT  155   STATUS:UNKNOWN
 FORMAT:FORMATTED              ACCESS:SEQUENTIAL          

 OPENING C:\iMOD5\iMOD5\TUTORIALS\TUT_iMOD-WQ_SEAWAT\DBASE\btn\starting_concentration_l19.idf
 FILE TYPE:DATA(IDF)   UNIT  156   STATUS:UNKNOWN
 FORMAT:FORMATTED              ACCESS:SEQUENTIAL          

 OPENING C:\iMOD5\iMOD5\TUTORIALS\TUT_iMOD-WQ_SEAWAT\DBASE\btn\starting_concentration_l20.idf
 FILE TYPE:DATA(IDF)   UNIT  157   STATUS:UNKNOWN
 FORMAT:FORMATTED              ACCESS:SEQUENTIAL          

 OPENING C:\iMOD5\iMOD5\TUTORIALS\TUT_iMOD-WQ_SEAWAT\DBASE\btn\starting_concentration_l21.idf
 FILE TYPE:DATA(IDF)   UNIT  158   STATUS:UNKNOWN
 FORMAT:FORMATTED              ACCESS:SEQUENTIAL          

 OPENING C:\iMOD5\iMOD5\TUTORIALS\TUT_iMOD-WQ_SEAWAT\DBASE\btn\starting_concentration_l22.idf
 FILE TYPE:DATA(IDF)   UNIT  159   STATUS:UNKNOWN
 FORMAT:FORMATTED              ACCESS:SEQUENTIAL          

 OPENING C:\iMOD5\iMOD5\TUTORIALS\TUT_iMOD-WQ_SEAWAT\DBASE\btn\starting_concentration_l23.idf
 FILE TYPE:DATA(IDF)   UNIT  160   STATUS:UNKNOWN
 FORMAT:FORMATTED              ACCESS:SEQUENTIAL          

 OPENING C:\iMOD5\iMOD5\TUTORIALS\TUT_iMOD-WQ_SEAWAT\DBASE\btn\starting_concentration_l24.idf
 FILE TYPE:DATA(IDF)   UNIT  161   STATUS:UNKNOWN
 FORMAT:FORMATTED              ACCESS:SEQUENTIAL          

 OPENING C:\iMOD5\iMOD5\TUTORIALS\TUT_iMOD-WQ_SEAWAT\DBASE\btn\starting_concentration_l25.idf
 FILE TYPE:DATA(IDF)   UNIT  162   STATUS:UNKNOWN
 FORMAT:FORMATTED              ACCESS:SEQUENTIAL          

 OPENING C:\iMOD5\iMOD5\TUTORIALS\TUT_iMOD-WQ_SEAWAT\DBASE\btn\starting_concentration_l26.idf
 FILE TYPE:DATA(IDF)   UNIT  163   STATUS:UNKNOWN
 FORMAT:FORMATTED              ACCESS:SEQUENTIAL          

 OPENING C:\iMOD5\iMOD5\TUTORIALS\TUT_iMOD-WQ_SEAWAT\DBASE\btn\starting_concentration_l27.idf
 FILE TYPE:DATA(IDF)   UNIT  164   STATUS:UNKNOWN
 FORMAT:FORMATTED              ACCESS:SEQUENTIAL          

 OPENING C:\iMOD5\iMOD5\TUTORIALS\TUT_iMOD-WQ_SEAWAT\DBASE\btn\starting_concentration_l28.idf
 FILE TYPE:DATA(IDF)   UNIT  165   STATUS:UNKNOWN
 FORMAT:FORMATTED              ACCESS:SEQUENTIAL          

 OPENING C:\iMOD5\iMOD5\TUTORIALS\TUT_iMOD-WQ_SEAWAT\DBASE\btn\starting_concentration_l29.idf
 FILE TYPE:DATA(IDF)   UNIT  166   STATUS:UNKNOWN
 FORMAT:FORMATTED              ACCESS:SEQUENTIAL          

 OPENING C:\iMOD5\iMOD5\TUTORIALS\TUT_iMOD-WQ_SEAWAT\DBASE\btn\starting_concentration_l30.idf
 FILE TYPE:DATA(IDF)   UNIT  167   STATUS:UNKNOWN
 FORMAT:FORMATTED              ACCESS:SEQUENTIAL          

 OPENING C:\IMOD5\IMOD5\TUTORIALS\TUT_iMOD-WQ_SEAWAT\DBASE\bot\bot_l1.idf
 FILE TYPE:DATA(IDF)   UNIT  168   STATUS:UNKNOWN
 FORMAT:FORMATTED              ACCESS:SEQUENTIAL          

 OPENING C:\IMOD5\IMOD5\TUTORIALS\TUT_iMOD-WQ_SEAWAT\DBASE\bot\bot_l2.idf
 FILE TYPE:DATA(IDF)   UNIT  169   STATUS:UNKNOWN
 FORMAT:FORMATTED              ACCESS:SEQUENTIAL          

 OPENING C:\IMOD5\IMOD5\TUTORIALS\TUT_iMOD-WQ_SEAWAT\DBASE\bot\bot_l3.idf
 FILE TYPE:DATA(IDF)   UNIT  170   STATUS:UNKNOWN
 FORMAT:FORMATTED              ACCESS:SEQUENTIAL          

 OPENING C:\IMOD5\IMOD5\TUTORIALS\TUT_iMOD-WQ_SEAWAT\DBASE\bot\bot_l4.idf
 FILE TYPE:DATA(IDF)   UNIT  171   STATUS:UNKNOWN
 FORMAT:FORMATTED              ACCESS:SEQUENTIAL          

 OPENING C:\IMOD5\IMOD5\TUTORIALS\TUT_iMOD-WQ_SEAWAT\DBASE\bot\bot_l5.idf
 FILE TYPE:DATA(IDF)   UNIT  172   STATUS:UNKNOWN
 FORMAT:FORMATTED              ACCESS:SEQUENTIAL          

 OPENING C:\IMOD5\IMOD5\TUTORIALS\TUT_iMOD-WQ_SEAWAT\DBASE\bot\bot_l6.idf
 FILE TYPE:DATA(IDF)   UNIT  173   STATUS:UNKNOWN
 FORMAT:FORMATTED              ACCESS:SEQUENTIAL          

 OPENING C:\IMOD5\IMOD5\TUTORIALS\TUT_iMOD-WQ_SEAWAT\DBASE\bot\bot_l7.idf
 FILE TYPE:DATA(IDF)   UNIT  174   STATUS:UNKNOWN
 FORMAT:FORMATTED              ACCESS:SEQUENTIAL          

 OPENING C:\IMOD5\IMOD5\TUTORIALS\TUT_iMOD-WQ_SEAWAT\DBASE\bot\bot_l8.idf
 FILE TYPE:DATA(IDF)   UNIT  175   STATUS:UNKNOWN
 FORMAT:FORMATTED              ACCESS:SEQUENTIAL          

 OPENING C:\IMOD5\IMOD5\TUTORIALS\TUT_iMOD-WQ_SEAWAT\DBASE\bot\bot_l9.idf
 FILE TYPE:DATA(IDF)   UNIT  176   STATUS:UNKNOWN
 FORMAT:FORMATTED              ACCESS:SEQUENTIAL          

 OPENING C:\IMOD5\IMOD5\TUTORIALS\TUT_iMOD-WQ_SEAWAT\DBASE\bot\bot_l10.idf
 FILE TYPE:DATA(IDF)   UNIT  177   STATUS:UNKNOWN
 FORMAT:FORMATTED              ACCESS:SEQUENTIAL          

 OPENING C:\IMOD5\IMOD5\TUTORIALS\TUT_iMOD-WQ_SEAWAT\DBASE\bot\bot_l11.idf
 FILE TYPE:DATA(IDF)   UNIT  178   STATUS:UNKNOWN
 FORMAT:FORMATTED              ACCESS:SEQUENTIAL          

 OPENING C:\IMOD5\IMOD5\TUTORIALS\TUT_iMOD-WQ_SEAWAT\DBASE\bot\bot_l12.idf
 FILE TYPE:DATA(IDF)   UNIT  179   STATUS:UNKNOWN
 FORMAT:FORMATTED              ACCESS:SEQUENTIAL          

 OPENING C:\IMOD5\IMOD5\TUTORIALS\TUT_iMOD-WQ_SEAWAT\DBASE\bot\bot_l13.idf
 FILE TYPE:DATA(IDF)   UNIT  180   STATUS:UNKNOWN
 FORMAT:FORMATTED              ACCESS:SEQUENTIAL          

 OPENING C:\IMOD5\IMOD5\TUTORIALS\TUT_iMOD-WQ_SEAWAT\DBASE\bot\bot_l14.idf
 FILE TYPE:DATA(IDF)   UNIT  181   STATUS:UNKNOWN
 FORMAT:FORMATTED              ACCESS:SEQUENTIAL          

 OPENING C:\IMOD5\IMOD5\TUTORIALS\TUT_iMOD-WQ_SEAWAT\DBASE\bot\bot_l15.idf
 FILE TYPE:DATA(IDF)   UNIT  182   STATUS:UNKNOWN
 FORMAT:FORMATTED              ACCESS:SEQUENTIAL          

 OPENING C:\IMOD5\IMOD5\TUTORIALS\TUT_iMOD-WQ_SEAWAT\DBASE\bot\bot_l16.idf
 FILE TYPE:DATA(IDF)   UNIT  183   STATUS:UNKNOWN
 FORMAT:FORMATTED              ACCESS:SEQUENTIAL          

 OPENING C:\IMOD5\IMOD5\TUTORIALS\TUT_iMOD-WQ_SEAWAT\DBASE\bot\bot_l17.idf
 FILE TYPE:DATA(IDF)   UNIT  184   STATUS:UNKNOWN
 FORMAT:FORMATTED              ACCESS:SEQUENTIAL          

 OPENING C:\IMOD5\IMOD5\TUTORIALS\TUT_iMOD-WQ_SEAWAT\DBASE\bot\bot_l18.idf
 FILE TYPE:DATA(IDF)   UNIT  185   STATUS:UNKNOWN
 FORMAT:FORMATTED              ACCESS:SEQUENTIAL          

 OPENING C:\IMOD5\IMOD5\TUTORIALS\TUT_iMOD-WQ_SEAWAT\DBASE\bot\bot_l19.idf
 FILE TYPE:DATA(IDF)   UNIT  186   STATUS:UNKNOWN
 FORMAT:FORMATTED              ACCESS:SEQUENTIAL          

 OPENING C:\IMOD5\IMOD5\TUTORIALS\TUT_iMOD-WQ_SEAWAT\DBASE\bot\bot_l20.idf
 FILE TYPE:DATA(IDF)   UNIT  187   STATUS:UNKNOWN
 FORMAT:FORMATTED              ACCESS:SEQUENTIAL          

 OPENING C:\IMOD5\IMOD5\TUTORIALS\TUT_iMOD-WQ_SEAWAT\DBASE\bot\bot_l21.idf
 FILE TYPE:DATA(IDF)   UNIT  188   STATUS:UNKNOWN
 FORMAT:FORMATTED              ACCESS:SEQUENTIAL          

 OPENING C:\IMOD5\IMOD5\TUTORIALS\TUT_iMOD-WQ_SEAWAT\DBASE\bot\bot_l22.idf
 FILE TYPE:DATA(IDF)   UNIT  189   STATUS:UNKNOWN
 FORMAT:FORMATTED              ACCESS:SEQUENTIAL          

 OPENING C:\IMOD5\IMOD5\TUTORIALS\TUT_iMOD-WQ_SEAWAT\DBASE\bot\bot_l23.idf
 FILE TYPE:DATA(IDF)   UNIT  190   STATUS:UNKNOWN
 FORMAT:FORMATTED              ACCESS:SEQUENTIAL          

 OPENING C:\IMOD5\IMOD5\TUTORIALS\TUT_iMOD-WQ_SEAWAT\DBASE\bot\bot_l24.idf
 FILE TYPE:DATA(IDF)   UNIT  191   STATUS:UNKNOWN
 FORMAT:FORMATTED              ACCESS:SEQUENTIAL          

 OPENING C:\IMOD5\IMOD5\TUTORIALS\TUT_iMOD-WQ_SEAWAT\DBASE\bot\bot_l25.idf
 FILE TYPE:DATA(IDF)   UNIT  192   STATUS:UNKNOWN
 FORMAT:FORMATTED              ACCESS:SEQUENTIAL          

 OPENING C:\IMOD5\IMOD5\TUTORIALS\TUT_iMOD-WQ_SEAWAT\DBASE\bot\bot_l26.idf
 FILE TYPE:DATA(IDF)   UNIT  193   STATUS:UNKNOWN
 FORMAT:FORMATTED              ACCESS:SEQUENTIAL          

 OPENING C:\IMOD5\IMOD5\TUTORIALS\TUT_iMOD-WQ_SEAWAT\DBASE\bot\bot_l27.idf
 FILE TYPE:DATA(IDF)   UNIT  194   STATUS:UNKNOWN
 FORMAT:FORMATTED              ACCESS:SEQUENTIAL          

 OPENING C:\IMOD5\IMOD5\TUTORIALS\TUT_iMOD-WQ_SEAWAT\DBASE\bot\bot_l28.idf
 FILE TYPE:DATA(IDF)   UNIT  195   STATUS:UNKNOWN
 FORMAT:FORMATTED              ACCESS:SEQUENTIAL          

 OPENING C:\IMOD5\IMOD5\TUTORIALS\TUT_iMOD-WQ_SEAWAT\DBASE\bot\bot_l29.idf
 FILE TYPE:DATA(IDF)   UNIT  196   STATUS:UNKNOWN
 FORMAT:FORMATTED              ACCESS:SEQUENTIAL          

 OPENING C:\IMOD5\IMOD5\TUTORIALS\TUT_iMOD-WQ_SEAWAT\DBASE\bot\bot_l30.idf
 FILE TYPE:DATA(IDF)   UNIT  197   STATUS:UNKNOWN
 FORMAT:FORMATTED              ACCESS:SEQUENTIAL          

 OPENING C:\IMOD5\IMOD5\TUTORIALS\TUT_iMOD-WQ_SEAWAT\DBASE\bas\ibound_l1.idf
 FILE TYPE:DATA(IDF)   UNIT  198   STATUS:UNKNOWN
 FORMAT:FORMATTED              ACCESS:SEQUENTIAL          

 OPENING C:\IMOD5\IMOD5\TUTORIALS\TUT_iMOD-WQ_SEAWAT\DBASE\bas\ibound_l2.idf
 FILE TYPE:DATA(IDF)   UNIT  199   STATUS:UNKNOWN
 FORMAT:FORMATTED              ACCESS:SEQUENTIAL          

 OPENING C:\IMOD5\IMOD5\TUTORIALS\TUT_iMOD-WQ_SEAWAT\DBASE\bas\ibound_l3.idf
 FILE TYPE:DATA(IDF)   UNIT  201   STATUS:UNKNOWN
 FORMAT:FORMATTED              ACCESS:SEQUENTIAL          

 OPENING C:\IMOD5\IMOD5\TUTORIALS\TUT_iMOD-WQ_SEAWAT\DBASE\bas\ibound_l4.idf
 FILE TYPE:DATA(IDF)   UNIT  202   STATUS:UNKNOWN
 FORMAT:FORMATTED              ACCESS:SEQUENTIAL          

 OPENING C:\IMOD5\IMOD5\TUTORIALS\TUT_iMOD-WQ_SEAWAT\DBASE\bas\ibound_l5.idf
 FILE TYPE:DATA(IDF)   UNIT  203   STATUS:UNKNOWN
 FORMAT:FORMATTED              ACCESS:SEQUENTIAL          

 OPENING C:\IMOD5\IMOD5\TUTORIALS\TUT_iMOD-WQ_SEAWAT\DBASE\bas\ibound_l6.idf
 FILE TYPE:DATA(IDF)   UNIT  204   STATUS:UNKNOWN
 FORMAT:FORMATTED              ACCESS:SEQUENTIAL          

 OPENING C:\IMOD5\IMOD5\TUTORIALS\TUT_iMOD-WQ_SEAWAT\DBASE\bas\ibound_l7.idf
 FILE TYPE:DATA(IDF)   UNIT  205   STATUS:UNKNOWN
 FORMAT:FORMATTED              ACCESS:SEQUENTIAL          

 OPENING C:\IMOD5\IMOD5\TUTORIALS\TUT_iMOD-WQ_SEAWAT\DBASE\bas\ibound_l8.idf
 FILE TYPE:DATA(IDF)   UNIT  206   STATUS:UNKNOWN
 FORMAT:FORMATTED              ACCESS:SEQUENTIAL          

 OPENING C:\IMOD5\IMOD5\TUTORIALS\TUT_iMOD-WQ_SEAWAT\DBASE\bas\ibound_l9.idf
 FILE TYPE:DATA(IDF)   UNIT  207   STATUS:UNKNOWN
 FORMAT:FORMATTED              ACCESS:SEQUENTIAL          

 OPENING C:\IMOD5\IMOD5\TUTORIALS\TUT_iMOD-WQ_SEAWAT\DBASE\bas\ibound_l10.idf
 FILE TYPE:DATA(IDF)   UNIT  208   STATUS:UNKNOWN
 FORMAT:FORMATTED              ACCESS:SEQUENTIAL          

 OPENING C:\IMOD5\IMOD5\TUTORIALS\TUT_iMOD-WQ_SEAWAT\DBASE\bas\ibound_l11.idf
 FILE TYPE:DATA(IDF)   UNIT  209   STATUS:UNKNOWN
 FORMAT:FORMATTED              ACCESS:SEQUENTIAL          

 OPENING C:\IMOD5\IMOD5\TUTORIALS\TUT_iMOD-WQ_SEAWAT\DBASE\bas\ibound_l12.idf
 FILE TYPE:DATA(IDF)   UNIT  210   STATUS:UNKNOWN
 FORMAT:FORMATTED              ACCESS:SEQUENTIAL          

 OPENING C:\IMOD5\IMOD5\TUTORIALS\TUT_iMOD-WQ_SEAWAT\DBASE\bas\ibound_l13.idf
 FILE TYPE:DATA(IDF)   UNIT  211   STATUS:UNKNOWN
 FORMAT:FORMATTED              ACCESS:SEQUENTIAL          

 OPENING C:\IMOD5\IMOD5\TUTORIALS\TUT_iMOD-WQ_SEAWAT\DBASE\bas\ibound_l14.idf
 FILE TYPE:DATA(IDF)   UNIT  212   STATUS:UNKNOWN
 FORMAT:FORMATTED              ACCESS:SEQUENTIAL          

 OPENING C:\IMOD5\IMOD5\TUTORIALS\TUT_iMOD-WQ_SEAWAT\DBASE\bas\ibound_l15.idf
 FILE TYPE:DATA(IDF)   UNIT  213   STATUS:UNKNOWN
 FORMAT:FORMATTED              ACCESS:SEQUENTIAL          

 OPENING C:\IMOD5\IMOD5\TUTORIALS\TUT_iMOD-WQ_SEAWAT\DBASE\bas\ibound_l16.idf
 FILE TYPE:DATA(IDF)   UNIT  214   STATUS:UNKNOWN
 FORMAT:FORMATTED              ACCESS:SEQUENTIAL          

 OPENING C:\IMOD5\IMOD5\TUTORIALS\TUT_iMOD-WQ_SEAWAT\DBASE\bas\ibound_l17.idf
 FILE TYPE:DATA(IDF)   UNIT  215   STATUS:UNKNOWN
 FORMAT:FORMATTED              ACCESS:SEQUENTIAL          

 OPENING C:\IMOD5\IMOD5\TUTORIALS\TUT_iMOD-WQ_SEAWAT\DBASE\bas\ibound_l18.idf
 FILE TYPE:DATA(IDF)   UNIT  216   STATUS:UNKNOWN
 FORMAT:FORMATTED              ACCESS:SEQUENTIAL          

 OPENING C:\IMOD5\IMOD5\TUTORIALS\TUT_iMOD-WQ_SEAWAT\DBASE\bas\ibound_l19.idf
 FILE TYPE:DATA(IDF)   UNIT  217   STATUS:UNKNOWN
 FORMAT:FORMATTED              ACCESS:SEQUENTIAL          

 OPENING C:\IMOD5\IMOD5\TUTORIALS\TUT_iMOD-WQ_SEAWAT\DBASE\bas\ibound_l20.idf
 FILE TYPE:DATA(IDF)   UNIT  218   STATUS:UNKNOWN
 FORMAT:FORMATTED              ACCESS:SEQUENTIAL          

 OPENING C:\IMOD5\IMOD5\TUTORIALS\TUT_iMOD-WQ_SEAWAT\DBASE\bas\ibound_l21.idf
 FILE TYPE:DATA(IDF)   UNIT  219   STATUS:UNKNOWN
 FORMAT:FORMATTED              ACCESS:SEQUENTIAL          

 OPENING C:\IMOD5\IMOD5\TUTORIALS\TUT_iMOD-WQ_SEAWAT\DBASE\bas\ibound_l22.idf
 FILE TYPE:DATA(IDF)   UNIT  220   STATUS:UNKNOWN
 FORMAT:FORMATTED              ACCESS:SEQUENTIAL          

 OPENING C:\IMOD5\IMOD5\TUTORIALS\TUT_iMOD-WQ_SEAWAT\DBASE\bas\ibound_l23.idf
 FILE TYPE:DATA(IDF)   UNIT  221   STATUS:UNKNOWN
 FORMAT:FORMATTED              ACCESS:SEQUENTIAL          

 OPENING C:\IMOD5\IMOD5\TUTORIALS\TUT_iMOD-WQ_SEAWAT\DBASE\bas\ibound_l24.idf
 FILE TYPE:DATA(IDF)   UNIT  222   STATUS:UNKNOWN
 FORMAT:FORMATTED              ACCESS:SEQUENTIAL          

 OPENING C:\IMOD5\IMOD5\TUTORIALS\TUT_iMOD-WQ_SEAWAT\DBASE\bas\ibound_l25.idf
 FILE TYPE:DATA(IDF)   UNIT  223   STATUS:UNKNOWN
 FORMAT:FORMATTED              ACCESS:SEQUENTIAL          

 OPENING C:\IMOD5\IMOD5\TUTORIALS\TUT_iMOD-WQ_SEAWAT\DBASE\bas\ibound_l26.idf
 FILE TYPE:DATA(IDF)   UNIT  224   STATUS:UNKNOWN
 FORMAT:FORMATTED              ACCESS:SEQUENTIAL          

 OPENING C:\IMOD5\IMOD5\TUTORIALS\TUT_iMOD-WQ_SEAWAT\DBASE\bas\ibound_l27.idf
 FILE TYPE:DATA(IDF)   UNIT  225   STATUS:UNKNOWN
 FORMAT:FORMATTED              ACCESS:SEQUENTIAL          

 OPENING C:\IMOD5\IMOD5\TUTORIALS\TUT_iMOD-WQ_SEAWAT\DBASE\bas\ibound_l28.idf
 FILE TYPE:DATA(IDF)   UNIT  226   STATUS:UNKNOWN
 FORMAT:FORMATTED              ACCESS:SEQUENTIAL          

 OPENING C:\IMOD5\IMOD5\TUTORIALS\TUT_iMOD-WQ_SEAWAT\DBASE\bas\ibound_l29.idf
 FILE TYPE:DATA(IDF)   UNIT  227   STATUS:UNKNOWN
 FORMAT:FORMATTED              ACCESS:SEQUENTIAL          

 OPENING C:\IMOD5\IMOD5\TUTORIALS\TUT_iMOD-WQ_SEAWAT\DBASE\bas\ibound_l30.idf
 FILE TYPE:DATA(IDF)   UNIT  228   STATUS:UNKNOWN
 FORMAT:FORMATTED              ACCESS:SEQUENTIAL          

 OPENING C:\IMOD5\IMOD5\TUTORIALS\TUT_iMOD-WQ_SEAWAT\DBASE\bas\starting_head_l1.idf
 FILE TYPE:DATA(IDF)   UNIT  229   STATUS:UNKNOWN
 FORMAT:FORMATTED              ACCESS:SEQUENTIAL          

 OPENING C:\IMOD5\IMOD5\TUTORIALS\TUT_iMOD-WQ_SEAWAT\DBASE\bas\starting_head_l2.idf
 FILE TYPE:DATA(IDF)   UNIT  230   STATUS:UNKNOWN
 FORMAT:FORMATTED              ACCESS:SEQUENTIAL          

 OPENING C:\IMOD5\IMOD5\TUTORIALS\TUT_iMOD-WQ_SEAWAT\DBASE\bas\starting_head_l3.idf
 FILE TYPE:DATA(IDF)   UNIT  231   STATUS:UNKNOWN
 FORMAT:FORMATTED              ACCESS:SEQUENTIAL          

 OPENING C:\IMOD5\IMOD5\TUTORIALS\TUT_iMOD-WQ_SEAWAT\DBASE\bas\starting_head_l4.idf
 FILE TYPE:DATA(IDF)   UNIT  232   STATUS:UNKNOWN
 FORMAT:FORMATTED              ACCESS:SEQUENTIAL          

 OPENING C:\IMOD5\IMOD5\TUTORIALS\TUT_iMOD-WQ_SEAWAT\DBASE\bas\starting_head_l5.idf
 FILE TYPE:DATA(IDF)   UNIT  233   STATUS:UNKNOWN
 FORMAT:FORMATTED              ACCESS:SEQUENTIAL          

 OPENING C:\IMOD5\IMOD5\TUTORIALS\TUT_iMOD-WQ_SEAWAT\DBASE\bas\starting_head_l6.idf
 FILE TYPE:DATA(IDF)   UNIT  234   STATUS:UNKNOWN
 FORMAT:FORMATTED              ACCESS:SEQUENTIAL          

 OPENING C:\IMOD5\IMOD5\TUTORIALS\TUT_iMOD-WQ_SEAWAT\DBASE\bas\starting_head_l7.idf
 FILE TYPE:DATA(IDF)   UNIT  235   STATUS:UNKNOWN
 FORMAT:FORMATTED              ACCESS:SEQUENTIAL          

 OPENING C:\IMOD5\IMOD5\TUTORIALS\TUT_iMOD-WQ_SEAWAT\DBASE\bas\starting_head_l8.idf
 FILE TYPE:DATA(IDF)   UNIT  236   STATUS:UNKNOWN
 FORMAT:FORMATTED              ACCESS:SEQUENTIAL          

 OPENING C:\IMOD5\IMOD5\TUTORIALS\TUT_iMOD-WQ_SEAWAT\DBASE\bas\starting_head_l9.idf
 FILE TYPE:DATA(IDF)   UNIT  237   STATUS:UNKNOWN
 FORMAT:FORMATTED              ACCESS:SEQUENTIAL          

 OPENING C:\IMOD5\IMOD5\TUTORIALS\TUT_iMOD-WQ_SEAWAT\DBASE\bas\starting_head_l10.idf
 FILE TYPE:DATA(IDF)   UNIT  238   STATUS:UNKNOWN
 FORMAT:FORMATTED              ACCESS:SEQUENTIAL          

 OPENING C:\IMOD5\IMOD5\TUTORIALS\TUT_iMOD-WQ_SEAWAT\DBASE\bas\starting_head_l11.idf
 FILE TYPE:DATA(IDF)   UNIT  239   STATUS:UNKNOWN
 FORMAT:FORMATTED              ACCESS:SEQUENTIAL          

 OPENING C:\IMOD5\IMOD5\TUTORIALS\TUT_iMOD-WQ_SEAWAT\DBASE\bas\starting_head_l12.idf
 FILE TYPE:DATA(IDF)   UNIT  240   STATUS:UNKNOWN
 FORMAT:FORMATTED              ACCESS:SEQUENTIAL          

 OPENING C:\IMOD5\IMOD5\TUTORIALS\TUT_iMOD-WQ_SEAWAT\DBASE\bas\starting_head_l13.idf
 FILE TYPE:DATA(IDF)   UNIT  241   STATUS:UNKNOWN
 FORMAT:FORMATTED              ACCESS:SEQUENTIAL          

 OPENING C:\IMOD5\IMOD5\TUTORIALS\TUT_iMOD-WQ_SEAWAT\DBASE\bas\starting_head_l14.idf
 FILE TYPE:DATA(IDF)   UNIT  242   STATUS:UNKNOWN
 FORMAT:FORMATTED              ACCESS:SEQUENTIAL          

 OPENING C:\IMOD5\IMOD5\TUTORIALS\TUT_iMOD-WQ_SEAWAT\DBASE\bas\starting_head_l15.idf
 FILE TYPE:DATA(IDF)   UNIT  243   STATUS:UNKNOWN
 FORMAT:FORMATTED              ACCESS:SEQUENTIAL          

 OPENING C:\IMOD5\IMOD5\TUTORIALS\TUT_iMOD-WQ_SEAWAT\DBASE\bas\starting_head_l16.idf
 FILE TYPE:DATA(IDF)   UNIT  244   STATUS:UNKNOWN
 FORMAT:FORMATTED              ACCESS:SEQUENTIAL          

 OPENING C:\IMOD5\IMOD5\TUTORIALS\TUT_iMOD-WQ_SEAWAT\DBASE\bas\starting_head_l17.idf
 FILE TYPE:DATA(IDF)   UNIT  245   STATUS:UNKNOWN
 FORMAT:FORMATTED              ACCESS:SEQUENTIAL          

 OPENING C:\IMOD5\IMOD5\TUTORIALS\TUT_iMOD-WQ_SEAWAT\DBASE\bas\starting_head_l18.idf
 FILE TYPE:DATA(IDF)   UNIT  246   STATUS:UNKNOWN
 FORMAT:FORMATTED              ACCESS:SEQUENTIAL          

 OPENING C:\IMOD5\IMOD5\TUTORIALS\TUT_iMOD-WQ_SEAWAT\DBASE\bas\starting_head_l19.idf
 FILE TYPE:DATA(IDF)   UNIT  247   STATUS:UNKNOWN
 FORMAT:FORMATTED              ACCESS:SEQUENTIAL          

 OPENING C:\IMOD5\IMOD5\TUTORIALS\TUT_iMOD-WQ_SEAWAT\DBASE\bas\starting_head_l20.idf
 FILE TYPE:DATA(IDF)   UNIT  248   STATUS:UNKNOWN
 FORMAT:FORMATTED              ACCESS:SEQUENTIAL          

 OPENING C:\IMOD5\IMOD5\TUTORIALS\TUT_iMOD-WQ_SEAWAT\DBASE\bas\starting_head_l21.idf
 FILE TYPE:DATA(IDF)   UNIT  249   STATUS:UNKNOWN
 FORMAT:FORMATTED              ACCESS:SEQUENTIAL          

 OPENING C:\IMOD5\IMOD5\TUTORIALS\TUT_iMOD-WQ_SEAWAT\DBASE\bas\starting_head_l22.idf
 FILE TYPE:DATA(IDF)   UNIT  250   STATUS:UNKNOWN
 FORMAT:FORMATTED              ACCESS:SEQUENTIAL          

 OPENING C:\IMOD5\IMOD5\TUTORIALS\TUT_iMOD-WQ_SEAWAT\DBASE\bas\starting_head_l23.idf
 FILE TYPE:DATA(IDF)   UNIT  251   STATUS:UNKNOWN
 FORMAT:FORMATTED              ACCESS:SEQUENTIAL          

 OPENING C:\IMOD5\IMOD5\TUTORIALS\TUT_iMOD-WQ_SEAWAT\DBASE\bas\starting_head_l24.idf
 FILE TYPE:DATA(IDF)   UNIT  252   STATUS:UNKNOWN
 FORMAT:FORMATTED              ACCESS:SEQUENTIAL          

 OPENING C:\IMOD5\IMOD5\TUTORIALS\TUT_iMOD-WQ_SEAWAT\DBASE\bas\starting_head_l25.idf
 FILE TYPE:DATA(IDF)   UNIT  253   STATUS:UNKNOWN
 FORMAT:FORMATTED              ACCESS:SEQUENTIAL          

 OPENING C:\IMOD5\IMOD5\TUTORIALS\TUT_iMOD-WQ_SEAWAT\DBASE\bas\starting_head_l26.idf
 FILE TYPE:DATA(IDF)   UNIT  254   STATUS:UNKNOWN
 FORMAT:FORMATTED              ACCESS:SEQUENTIAL          

 OPENING C:\IMOD5\IMOD5\TUTORIALS\TUT_iMOD-WQ_SEAWAT\DBASE\bas\starting_head_l27.idf
 FILE TYPE:DATA(IDF)   UNIT  255   STATUS:UNKNOWN
 FORMAT:FORMATTED              ACCESS:SEQUENTIAL          

 OPENING C:\IMOD5\IMOD5\TUTORIALS\TUT_iMOD-WQ_SEAWAT\DBASE\bas\starting_head_l28.idf
 FILE TYPE:DATA(IDF)   UNIT  256   STATUS:UNKNOWN
 FORMAT:FORMATTED              ACCESS:SEQUENTIAL          

 OPENING C:\IMOD5\IMOD5\TUTORIALS\TUT_iMOD-WQ_SEAWAT\DBASE\bas\starting_head_l29.idf
 FILE TYPE:DATA(IDF)   UNIT  257   STATUS:UNKNOWN
 FORMAT:FORMATTED              ACCESS:SEQUENTIAL          

 OPENING C:\IMOD5\IMOD5\TUTORIALS\TUT_iMOD-WQ_SEAWAT\DBASE\bas\starting_head_l30.idf
 FILE TYPE:DATA(IDF)   UNIT  258   STATUS:UNKNOWN
 FORMAT:FORMATTED              ACCESS:SEQUENTIAL          

 OPENING C:\IMOD5\IMOD5\TUTORIALS\TUT_iMOD-WQ_SEAWAT\DBASE\lpf\k_horizontal_l1.idf
 FILE TYPE:DATA(IDF)   UNIT  259   STATUS:UNKNOWN
 FORMAT:FORMATTED              ACCESS:SEQUENTIAL          

 OPENING C:\IMOD5\IMOD5\TUTORIALS\TUT_iMOD-WQ_SEAWAT\DBASE\lpf\vert_anisotropy_l1.idf
 FILE TYPE:DATA(IDF)   UNIT  260   STATUS:UNKNOWN
 FORMAT:FORMATTED              ACCESS:SEQUENTIAL          

 OPENING C:\IMOD5\IMOD5\TUTORIALS\TUT_iMOD-WQ_SEAWAT\DBASE\lpf\specific_storage_l1.idf
 FILE TYPE:DATA(IDF)   UNIT  261   STATUS:UNKNOWN
 FORMAT:FORMATTED              ACCESS:SEQUENTIAL          

 OPENING C:\IMOD5\IMOD5\TUTORIALS\TUT_iMOD-WQ_SEAWAT\DBASE\lpf\k_horizontal_l2.idf
 FILE TYPE:DATA(IDF)   UNIT  262   STATUS:UNKNOWN
 FORMAT:FORMATTED              ACCESS:SEQUENTIAL          

 OPENING C:\IMOD5\IMOD5\TUTORIALS\TUT_iMOD-WQ_SEAWAT\DBASE\lpf\vert_anisotropy_l2.idf
 FILE TYPE:DATA(IDF)   UNIT  263   STATUS:UNKNOWN
 FORMAT:FORMATTED              ACCESS:SEQUENTIAL          

 OPENING C:\IMOD5\IMOD5\TUTORIALS\TUT_iMOD-WQ_SEAWAT\DBASE\lpf\specific_storage_l2.idf
 FILE TYPE:DATA(IDF)   UNIT  264   STATUS:UNKNOWN
 FORMAT:FORMATTED              ACCESS:SEQUENTIAL          

 OPENING C:\IMOD5\IMOD5\TUTORIALS\TUT_iMOD-WQ_SEAWAT\DBASE\lpf\k_horizontal_l3.idf
 FILE TYPE:DATA(IDF)   UNIT  265   STATUS:UNKNOWN
 FORMAT:FORMATTED              ACCESS:SEQUENTIAL          

 OPENING C:\IMOD5\IMOD5\TUTORIALS\TUT_iMOD-WQ_SEAWAT\DBASE\lpf\vert_anisotropy_l3.idf
 FILE TYPE:DATA(IDF)   UNIT  266   STATUS:UNKNOWN
 FORMAT:FORMATTED              ACCESS:SEQUENTIAL          

 OPENING C:\IMOD5\IMOD5\TUTORIALS\TUT_iMOD-WQ_SEAWAT\DBASE\lpf\specific_storage_l3.idf
 FILE TYPE:DATA(IDF)   UNIT  267   STATUS:UNKNOWN
 FORMAT:FORMATTED              ACCESS:SEQUENTIAL          

 OPENING C:\IMOD5\IMOD5\TUTORIALS\TUT_iMOD-WQ_SEAWAT\DBASE\lpf\k_horizontal_l4.idf
 FILE TYPE:DATA(IDF)   UNIT  268   STATUS:UNKNOWN
 FORMAT:FORMATTED              ACCESS:SEQUENTIAL          

 OPENING C:\IMOD5\IMOD5\TUTORIALS\TUT_iMOD-WQ_SEAWAT\DBASE\lpf\vert_anisotropy_l4.idf
 FILE TYPE:DATA(IDF)   UNIT  269   STATUS:UNKNOWN
 FORMAT:FORMATTED              ACCESS:SEQUENTIAL          

 OPENING C:\IMOD5\IMOD5\TUTORIALS\TUT_iMOD-WQ_SEAWAT\DBASE\lpf\specific_storage_l4.idf
 FILE TYPE:DATA(IDF)   UNIT  270   STATUS:UNKNOWN
 FORMAT:FORMATTED              ACCESS:SEQUENTIAL          

 OPENING C:\IMOD5\IMOD5\TUTORIALS\TUT_iMOD-WQ_SEAWAT\DBASE\lpf\k_horizontal_l5.idf
 FILE TYPE:DATA(IDF)   UNIT  271   STATUS:UNKNOWN
 FORMAT:FORMATTED              ACCESS:SEQUENTIAL          

 OPENING C:\IMOD5\IMOD5\TUTORIALS\TUT_iMOD-WQ_SEAWAT\DBASE\lpf\vert_anisotropy_l5.idf
 FILE TYPE:DATA(IDF)   UNIT  272   STATUS:UNKNOWN
 FORMAT:FORMATTED              ACCESS:SEQUENTIAL          

 OPENING C:\IMOD5\IMOD5\TUTORIALS\TUT_iMOD-WQ_SEAWAT\DBASE\lpf\specific_storage_l5.idf
 FILE TYPE:DATA(IDF)   UNIT  273   STATUS:UNKNOWN
 FORMAT:FORMATTED              ACCESS:SEQUENTIAL          

 OPENING C:\IMOD5\IMOD5\TUTORIALS\TUT_iMOD-WQ_SEAWAT\DBASE\lpf\k_horizontal_l6.idf
 FILE TYPE:DATA(IDF)   UNIT  274   STATUS:UNKNOWN
 FORMAT:FORMATTED              ACCESS:SEQUENTIAL          

 OPENING C:\IMOD5\IMOD5\TUTORIALS\TUT_iMOD-WQ_SEAWAT\DBASE\lpf\vert_anisotropy_l6.idf
 FILE TYPE:DATA(IDF)   UNIT  275   STATUS:UNKNOWN
 FORMAT:FORMATTED              ACCESS:SEQUENTIAL          

 OPENING C:\IMOD5\IMOD5\TUTORIALS\TUT_iMOD-WQ_SEAWAT\DBASE\lpf\specific_storage_l6.idf
 FILE TYPE:DATA(IDF)   UNIT  276   STATUS:UNKNOWN
 FORMAT:FORMATTED              ACCESS:SEQUENTIAL          

 OPENING C:\IMOD5\IMOD5\TUTORIALS\TUT_iMOD-WQ_SEAWAT\DBASE\lpf\k_horizontal_l7.idf
 FILE TYPE:DATA(IDF)   UNIT  277   STATUS:UNKNOWN
 FORMAT:FORMATTED              ACCESS:SEQUENTIAL          

 OPENING C:\IMOD5\IMOD5\TUTORIALS\TUT_iMOD-WQ_SEAWAT\DBASE\lpf\vert_anisotropy_l7.idf
 FILE TYPE:DATA(IDF)   UNIT  278   STATUS:UNKNOWN
 FORMAT:FORMATTED              ACCESS:SEQUENTIAL          

 OPENING C:\IMOD5\IMOD5\TUTORIALS\TUT_iMOD-WQ_SEAWAT\DBASE\lpf\specific_storage_l7.idf
 FILE TYPE:DATA(IDF)   UNIT  279   STATUS:UNKNOWN
 FORMAT:FORMATTED              ACCESS:SEQUENTIAL          

 OPENING C:\IMOD5\IMOD5\TUTORIALS\TUT_iMOD-WQ_SEAWAT\DBASE\lpf\k_horizontal_l8.idf
 FILE TYPE:DATA(IDF)   UNIT  280   STATUS:UNKNOWN
 FORMAT:FORMATTED              ACCESS:SEQUENTIAL          

 OPENING C:\IMOD5\IMOD5\TUTORIALS\TUT_iMOD-WQ_SEAWAT\DBASE\lpf\vert_anisotropy_l8.idf
 FILE TYPE:DATA(IDF)   UNIT  281   STATUS:UNKNOWN
 FORMAT:FORMATTED              ACCESS:SEQUENTIAL          

 OPENING C:\IMOD5\IMOD5\TUTORIALS\TUT_iMOD-WQ_SEAWAT\DBASE\lpf\specific_storage_l8.idf
 FILE TYPE:DATA(IDF)   UNIT  282   STATUS:UNKNOWN
 FORMAT:FORMATTED              ACCESS:SEQUENTIAL          

 OPENING C:\IMOD5\IMOD5\TUTORIALS\TUT_iMOD-WQ_SEAWAT\DBASE\lpf\k_horizontal_l9.idf
 FILE TYPE:DATA(IDF)   UNIT  283   STATUS:UNKNOWN
 FORMAT:FORMATTED              ACCESS:SEQUENTIAL          

 OPENING C:\IMOD5\IMOD5\TUTORIALS\TUT_iMOD-WQ_SEAWAT\DBASE\lpf\vert_anisotropy_l9.idf
 FILE TYPE:DATA(IDF)   UNIT  284   STATUS:UNKNOWN
 FORMAT:FORMATTED              ACCESS:SEQUENTIAL          

 OPENING C:\IMOD5\IMOD5\TUTORIALS\TUT_iMOD-WQ_SEAWAT\DBASE\lpf\specific_storage_l9.idf
 FILE TYPE:DATA(IDF)   UNIT  285   STATUS:UNKNOWN
 FORMAT:FORMATTED              ACCESS:SEQUENTIAL          

 OPENING C:\IMOD5\IMOD5\TUTORIALS\TUT_iMOD-WQ_SEAWAT\DBASE\lpf\k_horizontal_l10.idf
 FILE TYPE:DATA(IDF)   UNIT  286   STATUS:UNKNOWN
 FORMAT:FORMATTED              ACCESS:SEQUENTIAL          

 OPENING C:\IMOD5\IMOD5\TUTORIALS\TUT_iMOD-WQ_SEAWAT\DBASE\lpf\vert_anisotropy_l10.idf
 FILE TYPE:DATA(IDF)   UNIT  287   STATUS:UNKNOWN
 FORMAT:FORMATTED              ACCESS:SEQUENTIAL          

 OPENING C:\IMOD5\IMOD5\TUTORIALS\TUT_iMOD-WQ_SEAWAT\DBASE\lpf\specific_storage_l10.idf
 FILE TYPE:DATA(IDF)   UNIT  288   STATUS:UNKNOWN
 FORMAT:FORMATTED              ACCESS:SEQUENTIAL          

 OPENING C:\IMOD5\IMOD5\TUTORIALS\TUT_iMOD-WQ_SEAWAT\DBASE\lpf\k_horizontal_l11.idf
 FILE TYPE:DATA(IDF)   UNIT  289   STATUS:UNKNOWN
 FORMAT:FORMATTED              ACCESS:SEQUENTIAL          

 OPENING C:\IMOD5\IMOD5\TUTORIALS\TUT_iMOD-WQ_SEAWAT\DBASE\lpf\vert_anisotropy_l11.idf
 FILE TYPE:DATA(IDF)   UNIT  290   STATUS:UNKNOWN
 FORMAT:FORMATTED              ACCESS:SEQUENTIAL          

 OPENING C:\IMOD5\IMOD5\TUTORIALS\TUT_iMOD-WQ_SEAWAT\DBASE\lpf\specific_storage_l11.idf
 FILE TYPE:DATA(IDF)   UNIT  291   STATUS:UNKNOWN
 FORMAT:FORMATTED              ACCESS:SEQUENTIAL          

 OPENING C:\IMOD5\IMOD5\TUTORIALS\TUT_iMOD-WQ_SEAWAT\DBASE\lpf\k_horizontal_l12.idf
 FILE TYPE:DATA(IDF)   UNIT  292   STATUS:UNKNOWN
 FORMAT:FORMATTED              ACCESS:SEQUENTIAL          

 OPENING C:\IMOD5\IMOD5\TUTORIALS\TUT_iMOD-WQ_SEAWAT\DBASE\lpf\vert_anisotropy_l12.idf
 FILE TYPE:DATA(IDF)   UNIT  293   STATUS:UNKNOWN
 FORMAT:FORMATTED              ACCESS:SEQUENTIAL          

 OPENING C:\IMOD5\IMOD5\TUTORIALS\TUT_iMOD-WQ_SEAWAT\DBASE\lpf\specific_storage_l12.idf
 FILE TYPE:DATA(IDF)   UNIT  294   STATUS:UNKNOWN
 FORMAT:FORMATTED              ACCESS:SEQUENTIAL          

 OPENING C:\IMOD5\IMOD5\TUTORIALS\TUT_iMOD-WQ_SEAWAT\DBASE\lpf\k_horizontal_l13.idf
 FILE TYPE:DATA(IDF)   UNIT  295   STATUS:UNKNOWN
 FORMAT:FORMATTED              ACCESS:SEQUENTIAL          

 OPENING C:\IMOD5\IMOD5\TUTORIALS\TUT_iMOD-WQ_SEAWAT\DBASE\lpf\vert_anisotropy_l13.idf
 FILE TYPE:DATA(IDF)   UNIT  296   STATUS:UNKNOWN
 FORMAT:FORMATTED              ACCESS:SEQUENTIAL          

 OPENING C:\IMOD5\IMOD5\TUTORIALS\TUT_iMOD-WQ_SEAWAT\DBASE\lpf\specific_storage_l13.idf
 FILE TYPE:DATA(IDF)   UNIT  297   STATUS:UNKNOWN
 FORMAT:FORMATTED              ACCESS:SEQUENTIAL          

 OPENING C:\IMOD5\IMOD5\TUTORIALS\TUT_iMOD-WQ_SEAWAT\DBASE\lpf\k_horizontal_l14.idf
 FILE TYPE:DATA(IDF)   UNIT  298   STATUS:UNKNOWN
 FORMAT:FORMATTED              ACCESS:SEQUENTIAL          

 OPENING C:\IMOD5\IMOD5\TUTORIALS\TUT_iMOD-WQ_SEAWAT\DBASE\lpf\vert_anisotropy_l14.idf
 FILE TYPE:DATA(IDF)   UNIT  299   STATUS:UNKNOWN
 FORMAT:FORMATTED              ACCESS:SEQUENTIAL          

 OPENING C:\IMOD5\IMOD5\TUTORIALS\TUT_iMOD-WQ_SEAWAT\DBASE\lpf\specific_storage_l14.idf
 FILE TYPE:DATA(IDF)   UNIT  301   STATUS:UNKNOWN
 FORMAT:FORMATTED              ACCESS:SEQUENTIAL          

 OPENING C:\IMOD5\IMOD5\TUTORIALS\TUT_iMOD-WQ_SEAWAT\DBASE\lpf\k_horizontal_l15.idf
 FILE TYPE:DATA(IDF)   UNIT  302   STATUS:UNKNOWN
 FORMAT:FORMATTED              ACCESS:SEQUENTIAL          

 OPENING C:\IMOD5\IMOD5\TUTORIALS\TUT_iMOD-WQ_SEAWAT\DBASE\lpf\vert_anisotropy_l15.idf
 FILE TYPE:DATA(IDF)   UNIT  303   STATUS:UNKNOWN
 FORMAT:FORMATTED              ACCESS:SEQUENTIAL          

 OPENING C:\IMOD5\IMOD5\TUTORIALS\TUT_iMOD-WQ_SEAWAT\DBASE\lpf\specific_storage_l15.idf
 FILE TYPE:DATA(IDF)   UNIT  304   STATUS:UNKNOWN
 FORMAT:FORMATTED              ACCESS:SEQUENTIAL          

 OPENING C:\IMOD5\IMOD5\TUTORIALS\TUT_iMOD-WQ_SEAWAT\DBASE\lpf\k_horizontal_l16.idf
 FILE TYPE:DATA(IDF)   UNIT  305   STATUS:UNKNOWN
 FORMAT:FORMATTED              ACCESS:SEQUENTIAL          

 OPENING C:\IMOD5\IMOD5\TUTORIALS\TUT_iMOD-WQ_SEAWAT\DBASE\lpf\vert_anisotropy_l16.idf
 FILE TYPE:DATA(IDF)   UNIT  306   STATUS:UNKNOWN
 FORMAT:FORMATTED              ACCESS:SEQUENTIAL          

 OPENING C:\IMOD5\IMOD5\TUTORIALS\TUT_iMOD-WQ_SEAWAT\DBASE\lpf\specific_storage_l16.idf
 FILE TYPE:DATA(IDF)   UNIT  307   STATUS:UNKNOWN
 FORMAT:FORMATTED              ACCESS:SEQUENTIAL          

 OPENING C:\IMOD5\IMOD5\TUTORIALS\TUT_iMOD-WQ_SEAWAT\DBASE\lpf\k_horizontal_l17.idf
 FILE TYPE:DATA(IDF)   UNIT  308   STATUS:UNKNOWN
 FORMAT:FORMATTED              ACCESS:SEQUENTIAL          

 OPENING C:\IMOD5\IMOD5\TUTORIALS\TUT_iMOD-WQ_SEAWAT\DBASE\lpf\vert_anisotropy_l17.idf
 FILE TYPE:DATA(IDF)   UNIT  309   STATUS:UNKNOWN
 FORMAT:FORMATTED              ACCESS:SEQUENTIAL          

 OPENING C:\IMOD5\IMOD5\TUTORIALS\TUT_iMOD-WQ_SEAWAT\DBASE\lpf\specific_storage_l17.idf
 FILE TYPE:DATA(IDF)   UNIT  310   STATUS:UNKNOWN
 FORMAT:FORMATTED              ACCESS:SEQUENTIAL          

 OPENING C:\IMOD5\IMOD5\TUTORIALS\TUT_iMOD-WQ_SEAWAT\DBASE\lpf\k_horizontal_l18.idf
 FILE TYPE:DATA(IDF)   UNIT  311   STATUS:UNKNOWN
 FORMAT:FORMATTED              ACCESS:SEQUENTIAL          

 OPENING C:\IMOD5\IMOD5\TUTORIALS\TUT_iMOD-WQ_SEAWAT\DBASE\lpf\vert_anisotropy_l18.idf
 FILE TYPE:DATA(IDF)   UNIT  312   STATUS:UNKNOWN
 FORMAT:FORMATTED              ACCESS:SEQUENTIAL          

 OPENING C:\IMOD5\IMOD5\TUTORIALS\TUT_iMOD-WQ_SEAWAT\DBASE\lpf\specific_storage_l18.idf
 FILE TYPE:DATA(IDF)   UNIT  313   STATUS:UNKNOWN
 FORMAT:FORMATTED              ACCESS:SEQUENTIAL          

 OPENING C:\IMOD5\IMOD5\TUTORIALS\TUT_iMOD-WQ_SEAWAT\DBASE\lpf\k_horizontal_l19.idf
 FILE TYPE:DATA(IDF)   UNIT  314   STATUS:UNKNOWN
 FORMAT:FORMATTED              ACCESS:SEQUENTIAL          

 OPENING C:\IMOD5\IMOD5\TUTORIALS\TUT_iMOD-WQ_SEAWAT\DBASE\lpf\vert_anisotropy_l19.idf
 FILE TYPE:DATA(IDF)   UNIT  315   STATUS:UNKNOWN
 FORMAT:FORMATTED              ACCESS:SEQUENTIAL          

 OPENING C:\IMOD5\IMOD5\TUTORIALS\TUT_iMOD-WQ_SEAWAT\DBASE\lpf\specific_storage_l19.idf
 FILE TYPE:DATA(IDF)   UNIT  316   STATUS:UNKNOWN
 FORMAT:FORMATTED              ACCESS:SEQUENTIAL          

 OPENING C:\IMOD5\IMOD5\TUTORIALS\TUT_iMOD-WQ_SEAWAT\DBASE\lpf\k_horizontal_l20.idf
 FILE TYPE:DATA(IDF)   UNIT  317   STATUS:UNKNOWN
 FORMAT:FORMATTED              ACCESS:SEQUENTIAL          

 OPENING C:\IMOD5\IMOD5\TUTORIALS\TUT_iMOD-WQ_SEAWAT\DBASE\lpf\vert_anisotropy_l20.idf
 FILE TYPE:DATA(IDF)   UNIT  318   STATUS:UNKNOWN
 FORMAT:FORMATTED              ACCESS:SEQUENTIAL          

 OPENING C:\IMOD5\IMOD5\TUTORIALS\TUT_iMOD-WQ_SEAWAT\DBASE\lpf\specific_storage_l20.idf
 FILE TYPE:DATA(IDF)   UNIT  319   STATUS:UNKNOWN
 FORMAT:FORMATTED              ACCESS:SEQUENTIAL          

 OPENING C:\IMOD5\IMOD5\TUTORIALS\TUT_iMOD-WQ_SEAWAT\DBASE\lpf\k_horizontal_l21.idf
 FILE TYPE:DATA(IDF)   UNIT  320   STATUS:UNKNOWN
 FORMAT:FORMATTED              ACCESS:SEQUENTIAL          

 OPENING C:\IMOD5\IMOD5\TUTORIALS\TUT_iMOD-WQ_SEAWAT\DBASE\lpf\vert_anisotropy_l21.idf
 FILE TYPE:DATA(IDF)   UNIT  321   STATUS:UNKNOWN
 FORMAT:FORMATTED              ACCESS:SEQUENTIAL          

 OPENING C:\IMOD5\IMOD5\TUTORIALS\TUT_iMOD-WQ_SEAWAT\DBASE\lpf\specific_storage_l21.idf
 FILE TYPE:DATA(IDF)   UNIT  322   STATUS:UNKNOWN
 FORMAT:FORMATTED              ACCESS:SEQUENTIAL          

 OPENING C:\IMOD5\IMOD5\TUTORIALS\TUT_iMOD-WQ_SEAWAT\DBASE\lpf\k_horizontal_l22.idf
 FILE TYPE:DATA(IDF)   UNIT  323   STATUS:UNKNOWN
 FORMAT:FORMATTED              ACCESS:SEQUENTIAL          

 OPENING C:\IMOD5\IMOD5\TUTORIALS\TUT_iMOD-WQ_SEAWAT\DBASE\lpf\vert_anisotropy_l22.idf
 FILE TYPE:DATA(IDF)   UNIT  324   STATUS:UNKNOWN
 FORMAT:FORMATTED              ACCESS:SEQUENTIAL          

 OPENING C:\IMOD5\IMOD5\TUTORIALS\TUT_iMOD-WQ_SEAWAT\DBASE\lpf\specific_storage_l22.idf
 FILE TYPE:DATA(IDF)   UNIT  325   STATUS:UNKNOWN
 FORMAT:FORMATTED              ACCESS:SEQUENTIAL          

 OPENING C:\IMOD5\IMOD5\TUTORIALS\TUT_iMOD-WQ_SEAWAT\DBASE\lpf\k_horizontal_l23.idf
 FILE TYPE:DATA(IDF)   UNIT  326   STATUS:UNKNOWN
 FORMAT:FORMATTED              ACCESS:SEQUENTIAL          

 OPENING C:\IMOD5\IMOD5\TUTORIALS\TUT_iMOD-WQ_SEAWAT\DBASE\lpf\vert_anisotropy_l23.idf
 FILE TYPE:DATA(IDF)   UNIT  327   STATUS:UNKNOWN
 FORMAT:FORMATTED              ACCESS:SEQUENTIAL          

 OPENING C:\IMOD5\IMOD5\TUTORIALS\TUT_iMOD-WQ_SEAWAT\DBASE\lpf\specific_storage_l23.idf
 FILE TYPE:DATA(IDF)   UNIT  328   STATUS:UNKNOWN
 FORMAT:FORMATTED              ACCESS:SEQUENTIAL          

 OPENING C:\IMOD5\IMOD5\TUTORIALS\TUT_iMOD-WQ_SEAWAT\DBASE\lpf\k_horizontal_l24.idf
 FILE TYPE:DATA(IDF)   UNIT  329   STATUS:UNKNOWN
 FORMAT:FORMATTED              ACCESS:SEQUENTIAL          

 OPENING C:\IMOD5\IMOD5\TUTORIALS\TUT_iMOD-WQ_SEAWAT\DBASE\lpf\vert_anisotropy_l24.idf
 FILE TYPE:DATA(IDF)   UNIT  330   STATUS:UNKNOWN
 FORMAT:FORMATTED              ACCESS:SEQUENTIAL          

 OPENING C:\IMOD5\IMOD5\TUTORIALS\TUT_iMOD-WQ_SEAWAT\DBASE\lpf\specific_storage_l24.idf
 FILE TYPE:DATA(IDF)   UNIT  331   STATUS:UNKNOWN
 FORMAT:FORMATTED              ACCESS:SEQUENTIAL          

 OPENING C:\IMOD5\IMOD5\TUTORIALS\TUT_iMOD-WQ_SEAWAT\DBASE\lpf\k_horizontal_l25.idf
 FILE TYPE:DATA(IDF)   UNIT  332   STATUS:UNKNOWN
 FORMAT:FORMATTED              ACCESS:SEQUENTIAL          

 OPENING C:\IMOD5\IMOD5\TUTORIALS\TUT_iMOD-WQ_SEAWAT\DBASE\lpf\vert_anisotropy_l25.idf
 FILE TYPE:DATA(IDF)   UNIT  333   STATUS:UNKNOWN
 FORMAT:FORMATTED              ACCESS:SEQUENTIAL          

 OPENING C:\IMOD5\IMOD5\TUTORIALS\TUT_iMOD-WQ_SEAWAT\DBASE\lpf\specific_storage_l25.idf
 FILE TYPE:DATA(IDF)   UNIT  334   STATUS:UNKNOWN
 FORMAT:FORMATTED              ACCESS:SEQUENTIAL          

 OPENING C:\IMOD5\IMOD5\TUTORIALS\TUT_iMOD-WQ_SEAWAT\DBASE\lpf\k_horizontal_l26.idf
 FILE TYPE:DATA(IDF)   UNIT  335   STATUS:UNKNOWN
 FORMAT:FORMATTED              ACCESS:SEQUENTIAL          

 OPENING C:\IMOD5\IMOD5\TUTORIALS\TUT_iMOD-WQ_SEAWAT\DBASE\lpf\vert_anisotropy_l26.idf
 FILE TYPE:DATA(IDF)   UNIT  336   STATUS:UNKNOWN
 FORMAT:FORMATTED              ACCESS:SEQUENTIAL          

 OPENING C:\IMOD5\IMOD5\TUTORIALS\TUT_iMOD-WQ_SEAWAT\DBASE\lpf\specific_storage_l26.idf
 FILE TYPE:DATA(IDF)   UNIT  337   STATUS:UNKNOWN
 FORMAT:FORMATTED              ACCESS:SEQUENTIAL          

 OPENING C:\IMOD5\IMOD5\TUTORIALS\TUT_iMOD-WQ_SEAWAT\DBASE\lpf\k_horizontal_l27.idf
 FILE TYPE:DATA(IDF)   UNIT  338   STATUS:UNKNOWN
 FORMAT:FORMATTED              ACCESS:SEQUENTIAL          

 OPENING C:\IMOD5\IMOD5\TUTORIALS\TUT_iMOD-WQ_SEAWAT\DBASE\lpf\vert_anisotropy_l27.idf
 FILE TYPE:DATA(IDF)   UNIT  339   STATUS:UNKNOWN
 FORMAT:FORMATTED              ACCESS:SEQUENTIAL          

 OPENING C:\IMOD5\IMOD5\TUTORIALS\TUT_iMOD-WQ_SEAWAT\DBASE\lpf\specific_storage_l27.idf
 FILE TYPE:DATA(IDF)   UNIT  340   STATUS:UNKNOWN
 FORMAT:FORMATTED              ACCESS:SEQUENTIAL          

 OPENING C:\IMOD5\IMOD5\TUTORIALS\TUT_iMOD-WQ_SEAWAT\DBASE\lpf\k_horizontal_l28.idf
 FILE TYPE:DATA(IDF)   UNIT  341   STATUS:UNKNOWN
 FORMAT:FORMATTED              ACCESS:SEQUENTIAL          

 OPENING C:\IMOD5\IMOD5\TUTORIALS\TUT_iMOD-WQ_SEAWAT\DBASE\lpf\vert_anisotropy_l28.idf
 FILE TYPE:DATA(IDF)   UNIT  342   STATUS:UNKNOWN
 FORMAT:FORMATTED              ACCESS:SEQUENTIAL          

 OPENING C:\IMOD5\IMOD5\TUTORIALS\TUT_iMOD-WQ_SEAWAT\DBASE\lpf\specific_storage_l28.idf
 FILE TYPE:DATA(IDF)   UNIT  343   STATUS:UNKNOWN
 FORMAT:FORMATTED              ACCESS:SEQUENTIAL          

 OPENING C:\IMOD5\IMOD5\TUTORIALS\TUT_iMOD-WQ_SEAWAT\DBASE\lpf\k_horizontal_l29.idf
 FILE TYPE:DATA(IDF)   UNIT  344   STATUS:UNKNOWN
 FORMAT:FORMATTED              ACCESS:SEQUENTIAL          

 OPENING C:\IMOD5\IMOD5\TUTORIALS\TUT_iMOD-WQ_SEAWAT\DBASE\lpf\vert_anisotropy_l29.idf
 FILE TYPE:DATA(IDF)   UNIT  345   STATUS:UNKNOWN
 FORMAT:FORMATTED              ACCESS:SEQUENTIAL          

 OPENING C:\IMOD5\IMOD5\TUTORIALS\TUT_iMOD-WQ_SEAWAT\DBASE\lpf\specific_storage_l29.idf
 FILE TYPE:DATA(IDF)   UNIT  346   STATUS:UNKNOWN
 FORMAT:FORMATTED              ACCESS:SEQUENTIAL          

 OPENING C:\IMOD5\IMOD5\TUTORIALS\TUT_iMOD-WQ_SEAWAT\DBASE\lpf\k_horizontal_l30.idf
 FILE TYPE:DATA(IDF)   UNIT  347   STATUS:UNKNOWN
 FORMAT:FORMATTED              ACCESS:SEQUENTIAL          

 OPENING C:\IMOD5\IMOD5\TUTORIALS\TUT_iMOD-WQ_SEAWAT\DBASE\lpf\vert_anisotropy_l30.idf
 FILE TYPE:DATA(IDF)   UNIT  348   STATUS:UNKNOWN
 FORMAT:FORMATTED              ACCESS:SEQUENTIAL          

 OPENING C:\IMOD5\IMOD5\TUTORIALS\TUT_iMOD-WQ_SEAWAT\DBASE\lpf\specific_storage_l30.idf
 FILE TYPE:DATA(IDF)   UNIT  349   STATUS:UNKNOWN
 FORMAT:FORMATTED              ACCESS:SEQUENTIAL          

 OPENING C:\IMOD5\IMOD5\TUTORIALS\TUT_iMOD-WQ_SEAWAT\DBASE\rch\rate.idf
 FILE TYPE:DATA(IDF)   UNIT  350   STATUS:UNKNOWN
 FORMAT:FORMATTED              ACCESS:SEQUENTIAL          

 THE FREE FORMAT OPTION HAS BEEN SELECTED

 DISCRETIZATION INPUT DATA READ FROM UNIT   15
   30 LAYERS        60 ROWS        60 COLUMNS
    4 STRESS PERIOD(S) IN SIMULATION
 MODEL TIME UNIT IS DAYS
 MODEL LENGTH UNIT IS METERS
  ----- 
 | M T | written by imod v5_1                                                            
 | 3 D |                                                                                 
  ----- 
 THE TRANSPORT MODEL CONSISTS OF    30 LAYER(S)   60 ROW(S)   60 COLUMN(S)
 NUMBER OF STRESS PERIOD(S) FOR TRANSPORT SIMULATION =    4
 NUMBER OF ALL COMPONENTS INCLUDED IN SIMULATION =    1
 NUMBER OF MOBILE COMPONENTS INCLUDED IN SIMULATION =    1
 UNIT FOR TIME IS    d;  UNIT FOR LENGTH IS    m;  UNIT FOR MASS IS    k
 OPTIONAL PACKAGES INCLUDED IN CURRENT SIMULATION:
  o ADV   ON UNIT 29
  o DSP   ON UNIT 31
  o SSM   ON UNIT 35
  o GCG   ON UNIT 33
  o MET   ON UNIT 39


 VDF -- VARIABLE DENSITY FLOW, VERSION 1, 2/13/2004
         INPUT READ FROM UNIT 26

 COUPLING BETWEEN FLOW AND TRANSPORT IS EXPLICIT
 VARIABLE-DENSITY WATER-TABLE CORRECTIONS NOT ADDED
 MT3DMS SPECIES USED IN EQUATION OF STATE FOR FLUID DENSITY:          1
 AN UPSTREAM-WEIGHTED ALGORITHM IS USED TO CALCULATE FLUID DENSITY TERMS THAT CONSERVE MASS
  1000.     REFERENCE DENSITY
 0.7143     DENSITY SLOPE FOR EQUATION OF STATE
 DENSITY EQUATION OF STATE
 RHO =     1000.00    
  + 0.7143     * ( CONC(   1) -  0.000     )



 FIRSTDT SPECIFIED BY USER IN THE VDF FILE IS:   0.1000000E-02
 THE GROUND-WATER TRANSPORT PROCESS IS INACTIVE

 THE OBSERVATION PROCESS IS INACTIVE
 THE SENSITIVITY PROCESS IS INACTIVE
 THE PARAMETER-ESTIMATION PROCESS IS INACTIVE

 MODE: FORWARD

  Confining bed flag for each layer:
   0   0   0   0   0   0   0   0   0   0   0   0   0   0   0   0   0   0   0   0
   0   0   0   0   0   0   0   0   0   0

     972120  ELEMENTS OF GX ARRAY USED OUT OF     972120
     108000  ELEMENTS OF GZ ARRAY USED OUT OF     108000
     108000  ELEMENTS OF IG ARRAY USED OUT OF     108000



                               DELR
 READING ON UNIT   15 WITH FORMAT: (FREE)              
   100.00       100.00       100.00       100.00       100.00       100.00       100.00       100.00       100.00       100.00    
   100.00       100.00       100.00       100.00       100.00       100.00       100.00       100.00       100.00       100.00    
   100.00       100.00       100.00       100.00       100.00       100.00       100.00       100.00       100.00       100.00    
   100.00       100.00       100.00       100.00       100.00       100.00       100.00       100.00       100.00       100.00    
   100.00       100.00       100.00       100.00       100.00       100.00       100.00       100.00       100.00       100.00    
   100.00       100.00       100.00       100.00       100.00       100.00       100.00       100.00       100.00       100.00    



                               DELC
 READING ON UNIT   15 WITH FORMAT: (FREE)              
   100.00       100.00       100.00       100.00       100.00       100.00       100.00       100.00       100.00       100.00    
   100.00       100.00       100.00       100.00       100.00       100.00       100.00       100.00       100.00       100.00    
   100.00       100.00       100.00       100.00       100.00       100.00       100.00       100.00       100.00       100.00    
   100.00       100.00       100.00       100.00       100.00       100.00       100.00       100.00       100.00       100.00    
   100.00       100.00       100.00       100.00       100.00       100.00       100.00       100.00       100.00       100.00    
   100.00       100.00       100.00       100.00       100.00       100.00       100.00       100.00       100.00       100.00    



 TOP ELEVATION OF LAYER 1
 READING BINARY ON UNIT   42



             MODEL LAYER BOTTOM EL. FOR LAYER   1
 READING BINARY ON UNIT  168



             MODEL LAYER BOTTOM EL. FOR LAYER   2
 READING BINARY ON UNIT  169



             MODEL LAYER BOTTOM EL. FOR LAYER   3
 READING BINARY ON UNIT  170



             MODEL LAYER BOTTOM EL. FOR LAYER   4
 READING BINARY ON UNIT  171



             MODEL LAYER BOTTOM EL. FOR LAYER   5
 READING BINARY ON UNIT  172



             MODEL LAYER BOTTOM EL. FOR LAYER   6
 READING BINARY ON UNIT  173



             MODEL LAYER BOTTOM EL. FOR LAYER   7
 READING BINARY ON UNIT  174



             MODEL LAYER BOTTOM EL. FOR LAYER   8
 READING BINARY ON UNIT  175



             MODEL LAYER BOTTOM EL. FOR LAYER   9
 READING BINARY ON UNIT  176



             MODEL LAYER BOTTOM EL. FOR LAYER  10
 READING BINARY ON UNIT  177



             MODEL LAYER BOTTOM EL. FOR LAYER  11
 READING BINARY ON UNIT  178



             MODEL LAYER BOTTOM EL. FOR LAYER  12
 READING BINARY ON UNIT  179



             MODEL LAYER BOTTOM EL. FOR LAYER  13
 READING BINARY ON UNIT  180



             MODEL LAYER BOTTOM EL. FOR LAYER  14
 READING BINARY ON UNIT  181



             MODEL LAYER BOTTOM EL. FOR LAYER  15
 READING BINARY ON UNIT  182



             MODEL LAYER BOTTOM EL. FOR LAYER  16
 READING BINARY ON UNIT  183



             MODEL LAYER BOTTOM EL. FOR LAYER  17
 READING BINARY ON UNIT  184



             MODEL LAYER BOTTOM EL. FOR LAYER  18
 READING BINARY ON UNIT  185



             MODEL LAYER BOTTOM EL. FOR LAYER  19
 READING BINARY ON UNIT  186



             MODEL LAYER BOTTOM EL. FOR LAYER  20
 READING BINARY ON UNIT  187



             MODEL LAYER BOTTOM EL. FOR LAYER  21
 READING BINARY ON UNIT  188



             MODEL LAYER BOTTOM EL. FOR LAYER  22
 READING BINARY ON UNIT  189



             MODEL LAYER BOTTOM EL. FOR LAYER  23
 READING BINARY ON UNIT  190



             MODEL LAYER BOTTOM EL. FOR LAYER  24
 READING BINARY ON UNIT  191



             MODEL LAYER BOTTOM EL. FOR LAYER  25
 READING BINARY ON UNIT  192



             MODEL LAYER BOTTOM EL. FOR LAYER  26
 READING BINARY ON UNIT  193



             MODEL LAYER BOTTOM EL. FOR LAYER  27
 READING BINARY ON UNIT  194



             MODEL LAYER BOTTOM EL. FOR LAYER  28
 READING BINARY ON UNIT  195



             MODEL LAYER BOTTOM EL. FOR LAYER  29
 READING BINARY ON UNIT  196



             MODEL LAYER BOTTOM EL. FOR LAYER  30
 READING BINARY ON UNIT  197


 STRESS PERIOD     LENGTH       TIME STEPS     MULTIPLIER FOR DELT    SS FLAG
 ----------------------------------------------------------------------------
        1         7304.000          1                    1.000         TR
        2         7305.000          1                    1.000         TR
        3         7305.000          1                    1.000         TR
        4         7305.000          1                    1.000         TR

 TRANSIENT SIMULATION




 LPF1 -- LAYER PROPERTY FLOW PACKAGE, VERSION 1, 1/11/2000
         INPUT READ FROM UNIT   20
 HEAD AT CELLS THAT CONVERT TO DRY=  -9999.0    
 No named parameters

   LAYER FLAGS:
 LAYER       LAYTYP        LAYAVG         CHANI        LAYVKA        LAYWET
 ---------------------------------------------------------------------------
    1             0             0     1.000E+00             1             0
    2             0             0     1.000E+00             1             0
    3             0             0     1.000E+00             1             0
    4             0             0     1.000E+00             1             0
    5             0             0     1.000E+00             1             0
    6             0             0     1.000E+00             1             0
    7             0             0     1.000E+00             1             0
    8             0             0     1.000E+00             1             0
    9             0             0     1.000E+00             1             0
   10             0             0     1.000E+00             1             0
   11             0             0     1.000E+00             1             0
   12             0             0     1.000E+00             1             0
   13             0             0     1.000E+00             1             0
   14             0             0     1.000E+00             1             0
   15             0             0     1.000E+00             1             0
   16             0             0     1.000E+00             1             0
   17             0             0     1.000E+00             1             0
   18             0             0     1.000E+00             1             0
   19             0             0     1.000E+00             1             0
   20             0             0     1.000E+00             1             0
   21             0             0     1.000E+00             1             0
   22             0             0     1.000E+00             1             0
   23             0             0     1.000E+00             1             0
   24             0             0     1.000E+00             1             0
   25             0             0     1.000E+00             1             0
   26             0             0     1.000E+00             1             0
   27             0             0     1.000E+00             1             0
   28             0             0     1.000E+00             1             0
   29             0             0     1.000E+00             1             0
   30             0             0     1.000E+00             1             0

   INTERPRETATION OF LAYER FLAGS:
                        INTERBLOCK     HORIZONTAL    DATA IN
         LAYER TYPE   TRANSMISSIVITY   ANISOTROPY   ARRAY VKA   WETTABILITY
 LAYER      (LAYTYP)      (LAYAVG)       (CHANI)      (LAYVKA)      (LAYWET)
 ---------------------------------------------------------------------------
    1      CONFINED      HARMONIC     1.000E+00    ANISOTROPY  NON-WETTABLE
    2      CONFINED      HARMONIC     1.000E+00    ANISOTROPY  NON-WETTABLE
    3      CONFINED      HARMONIC     1.000E+00    ANISOTROPY  NON-WETTABLE
    4      CONFINED      HARMONIC     1.000E+00    ANISOTROPY  NON-WETTABLE
    5      CONFINED      HARMONIC     1.000E+00    ANISOTROPY  NON-WETTABLE
    6      CONFINED      HARMONIC     1.000E+00    ANISOTROPY  NON-WETTABLE
    7      CONFINED      HARMONIC     1.000E+00    ANISOTROPY  NON-WETTABLE
    8      CONFINED      HARMONIC     1.000E+00    ANISOTROPY  NON-WETTABLE
    9      CONFINED      HARMONIC     1.000E+00    ANISOTROPY  NON-WETTABLE
   10      CONFINED      HARMONIC     1.000E+00    ANISOTROPY  NON-WETTABLE
   11      CONFINED      HARMONIC     1.000E+00    ANISOTROPY  NON-WETTABLE
   12      CONFINED      HARMONIC     1.000E+00    ANISOTROPY  NON-WETTABLE
   13      CONFINED      HARMONIC     1.000E+00    ANISOTROPY  NON-WETTABLE
   14      CONFINED      HARMONIC     1.000E+00    ANISOTROPY  NON-WETTABLE
   15      CONFINED      HARMONIC     1.000E+00    ANISOTROPY  NON-WETTABLE
   16      CONFINED      HARMONIC     1.000E+00    ANISOTROPY  NON-WETTABLE
   17      CONFINED      HARMONIC     1.000E+00    ANISOTROPY  NON-WETTABLE
   18      CONFINED      HARMONIC     1.000E+00    ANISOTROPY  NON-WETTABLE
   19      CONFINED      HARMONIC     1.000E+00    ANISOTROPY  NON-WETTABLE
   20      CONFINED      HARMONIC     1.000E+00    ANISOTROPY  NON-WETTABLE
   21      CONFINED      HARMONIC     1.000E+00    ANISOTROPY  NON-WETTABLE
   22      CONFINED      HARMONIC     1.000E+00    ANISOTROPY  NON-WETTABLE
   23      CONFINED      HARMONIC     1.000E+00    ANISOTROPY  NON-WETTABLE
   24      CONFINED      HARMONIC     1.000E+00    ANISOTROPY  NON-WETTABLE
   25      CONFINED      HARMONIC     1.000E+00    ANISOTROPY  NON-WETTABLE
   26      CONFINED      HARMONIC     1.000E+00    ANISOTROPY  NON-WETTABLE
   27      CONFINED      HARMONIC     1.000E+00    ANISOTROPY  NON-WETTABLE
   28      CONFINED      HARMONIC     1.000E+00    ANISOTROPY  NON-WETTABLE
   29      CONFINED      HARMONIC     1.000E+00    ANISOTROPY  NON-WETTABLE
   30      CONFINED      HARMONIC     1.000E+00    ANISOTROPY  NON-WETTABLE

     324000 ELEMENTS IN X ARRAY ARE USED BY LPF
        180 ELEMENTS IN IX ARRAY ARE USED BY LPF

 PCG2 -- CONJUGATE GRADIENT SOLUTION PACKAGE, VERSION 2.4, 12/29/98
 MAXIMUM OF    150 CALLS OF SOLUTION ROUTINE
 MAXIMUM OF     30 INTERNAL ITERATIONS PER CALL TO SOLUTION ROUTINE
 MATRIX PRECONDITIONING TYPE :    1
     225000 ELEMENTS IN X ARRAY ARE USED BY PCG
      31500 ELEMENTS IN IX ARRAY ARE USED BY PCG
     432000 ELEMENTS IN Z ARRAY ARE USED BY PCG

     549000  ELEMENTS OF X ARRAY USED OUT OF     549000
     432000  ELEMENTS OF Z ARRAY USED OUT OF     432000
      31680  ELEMENTS OF IX ARRAY USED OUT OF      31680
          0  ELEMENTS OF XHS ARRAY USED OUT OF          1



                                    SOLUTION BY THE CONJUGATE-GRADIENT METHOD
                                   -------------------------------------------
                    MAXIMUM NUMBER OF CALLS TO PCG ROUTINE =      150
                        MAXIMUM ITERATIONS PER CALL TO PCG =       30
                               MATRIX PRECONDITIONING TYPE =        1
        RELAXATION FACTOR (ONLY USED WITH PRECOND. TYPE 1) =    0.98000E+00
 PARAMETER OF POLYNOMIAL PRECOND. = 2 (2) OR IS CALCULATED :        2
                         HEAD CHANGE CRITERION FOR CLOSURE =    0.10000E-03
                     RESIDUAL CHANGE CRITERION FOR CLOSURE =    0.10000E+00
            PCG HEAD AND RESIDUAL CHANGE PRINTOUT INTERVAL =        1
     PRINTING FROM SOLVER IS LIMITED(1) OR SUPPRESSED (>1) =        1
                                         DAMPING PARAMETER =    0.10000E+01

 WETTING CAPABILITY IS NOT ACTIVE IN ANY LAYER



              HYD. COND. ALONG ROWS FOR LAYER   1
 READING BINARY ON UNIT  259



            HORIZ. TO VERTICAL ANI. FOR LAYER   1
 READING BINARY ON UNIT  260



                   SPECIFIC STORAGE FOR LAYER   1
 READING BINARY ON UNIT  261



              HYD. COND. ALONG ROWS FOR LAYER   2
 READING BINARY ON UNIT  262



            HORIZ. TO VERTICAL ANI. FOR LAYER   2
 READING BINARY ON UNIT  263



                   SPECIFIC STORAGE FOR LAYER   2
 READING BINARY ON UNIT  264



              HYD. COND. ALONG ROWS FOR LAYER   3
 READING BINARY ON UNIT  265



            HORIZ. TO VERTICAL ANI. FOR LAYER   3
 READING BINARY ON UNIT  266



                   SPECIFIC STORAGE FOR LAYER   3
 READING BINARY ON UNIT  267



              HYD. COND. ALONG ROWS FOR LAYER   4
 READING BINARY ON UNIT  268



            HORIZ. TO VERTICAL ANI. FOR LAYER   4
 READING BINARY ON UNIT  269



                   SPECIFIC STORAGE FOR LAYER   4
 READING BINARY ON UNIT  270



              HYD. COND. ALONG ROWS FOR LAYER   5
 READING BINARY ON UNIT  271



            HORIZ. TO VERTICAL ANI. FOR LAYER   5
 READING BINARY ON UNIT  272



                   SPECIFIC STORAGE FOR LAYER   5
 READING BINARY ON UNIT  273



              HYD. COND. ALONG ROWS FOR LAYER   6
 READING BINARY ON UNIT  274



            HORIZ. TO VERTICAL ANI. FOR LAYER   6
 READING BINARY ON UNIT  275



                   SPECIFIC STORAGE FOR LAYER   6
 READING BINARY ON UNIT  276



              HYD. COND. ALONG ROWS FOR LAYER   7
 READING BINARY ON UNIT  277



            HORIZ. TO VERTICAL ANI. FOR LAYER   7
 READING BINARY ON UNIT  278



                   SPECIFIC STORAGE FOR LAYER   7
 READING BINARY ON UNIT  279



              HYD. COND. ALONG ROWS FOR LAYER   8
 READING BINARY ON UNIT  280



            HORIZ. TO VERTICAL ANI. FOR LAYER   8
 READING BINARY ON UNIT  281



                   SPECIFIC STORAGE FOR LAYER   8
 READING BINARY ON UNIT  282



              HYD. COND. ALONG ROWS FOR LAYER   9
 READING BINARY ON UNIT  283



            HORIZ. TO VERTICAL ANI. FOR LAYER   9
 READING BINARY ON UNIT  284



                   SPECIFIC STORAGE FOR LAYER   9
 READING BINARY ON UNIT  285



              HYD. COND. ALONG ROWS FOR LAYER  10
 READING BINARY ON UNIT  286



            HORIZ. TO VERTICAL ANI. FOR LAYER  10
 READING BINARY ON UNIT  287



                   SPECIFIC STORAGE FOR LAYER  10
 READING BINARY ON UNIT  288



              HYD. COND. ALONG ROWS FOR LAYER  11
 READING BINARY ON UNIT  289



            HORIZ. TO VERTICAL ANI. FOR LAYER  11
 READING BINARY ON UNIT  290



                   SPECIFIC STORAGE FOR LAYER  11
 READING BINARY ON UNIT  291



              HYD. COND. ALONG ROWS FOR LAYER  12
 READING BINARY ON UNIT  292



            HORIZ. TO VERTICAL ANI. FOR LAYER  12
 READING BINARY ON UNIT  293



                   SPECIFIC STORAGE FOR LAYER  12
 READING BINARY ON UNIT  294



              HYD. COND. ALONG ROWS FOR LAYER  13
 READING BINARY ON UNIT  295



            HORIZ. TO VERTICAL ANI. FOR LAYER  13
 READING BINARY ON UNIT  296



                   SPECIFIC STORAGE FOR LAYER  13
 READING BINARY ON UNIT  297



              HYD. COND. ALONG ROWS FOR LAYER  14
 READING BINARY ON UNIT  298



            HORIZ. TO VERTICAL ANI. FOR LAYER  14
 READING BINARY ON UNIT  299



                   SPECIFIC STORAGE FOR LAYER  14
 READING BINARY ON UNIT  301



              HYD. COND. ALONG ROWS FOR LAYER  15
 READING BINARY ON UNIT  302



            HORIZ. TO VERTICAL ANI. FOR LAYER  15
 READING BINARY ON UNIT  303



                   SPECIFIC STORAGE FOR LAYER  15
 READING BINARY ON UNIT  304



              HYD. COND. ALONG ROWS FOR LAYER  16
 READING BINARY ON UNIT  305



            HORIZ. TO VERTICAL ANI. FOR LAYER  16
 READING BINARY ON UNIT  306



                   SPECIFIC STORAGE FOR LAYER  16
 READING BINARY ON UNIT  307



              HYD. COND. ALONG ROWS FOR LAYER  17
 READING BINARY ON UNIT  308



            HORIZ. TO VERTICAL ANI. FOR LAYER  17
 READING BINARY ON UNIT  309



                   SPECIFIC STORAGE FOR LAYER  17
 READING BINARY ON UNIT  310



[...]


 TOTAL NUMBER OF POINT SOURCES/SINKS PRESENT IN THE FLOW MODEL =      2343

 MAXIMUM STEPSIZE WHICH MEETS STABILITY CRITERION OF THE SINK & SOURCE TERM
 = 0.1000E+31(WHEN MIN. R.F.=1)  AT K=   0, I=   0, J=   0

 MAXIMUM STEPSIZE WHICH MEETS STABILITY CRITERION OF THE DISPERSION TERM
 =  37.72    (WHEN MIN. R.F.=1)  AT K=   1, I=  12, J=  22
     4 CALLS TO GCG PACKAGE FOR TRANSPORT TIME STEP  37 IN FLOW TIME STEP   1 STRESS PERIOD   4
    10 TOTAL ITERATIONS
 
 SOLVING FOR HEAD 


     3 CALLS TO PCG ROUTINE FOR TIME STEP   1 IN STRESS PERIOD    4
    25 TOTAL ITERATIONS
 FLOW MODEL IS TRANSIENT
 FLOW MODEL CONTAINS CONSTANT-HEAD CELLS


 MAXIMUM STEPSIZE DURING WHICH ANY PARTICLE CANNOT MOVE MORE THAN ONE CELL
 =  236.7    (WHEN MIN. R.F.=1)  AT K=   2, I=  12, J=  40

 MAXIMUM STEPSIZE WHICH MEETS STABILITY CRITERION OF THE ADVECTION TERM
 (FOR PURE FINITE-DIFFERENCE OPTION, MIXELM=0) 
 =  139.6    (WHEN MIN. R.F.=1)  AT K=   2, I=  12, J=  40


 TOTAL NUMBER OF POINT SOURCES/SINKS PRESENT IN THE FLOW MODEL =      2343

 MAXIMUM STEPSIZE WHICH MEETS STABILITY CRITERION OF THE SINK & SOURCE TERM
 = 0.1000E+31(WHEN MIN. R.F.=1)  AT K=   0, I=   0, J=   0

 MAXIMUM STEPSIZE WHICH MEETS STABILITY CRITERION OF THE DISPERSION TERM
 =  37.69    (WHEN MIN. R.F.=1)  AT K=   1, I=  12, J=  22
     4 CALLS TO GCG PACKAGE FOR TRANSPORT TIME STEP  38 IN FLOW TIME STEP   1 STRESS PERIOD   4
    10 TOTAL ITERATIONS
 
 SOLVING FOR HEAD 


     3 CALLS TO PCG ROUTINE FOR TIME STEP   1 IN STRESS PERIOD    4
    25 TOTAL ITERATIONS
 FLOW MODEL IS TRANSIENT
 FLOW MODEL CONTAINS CONSTANT-HEAD CELLS


 MAXIMUM STEPSIZE DURING WHICH ANY PARTICLE CANNOT MOVE MORE THAN ONE CELL
 =  236.5    (WHEN MIN. R.F.=1)  AT K=   2, I=  12, J=  40

 MAXIMUM STEPSIZE WHICH MEETS STABILITY CRITERION OF THE ADVECTION TERM
 (FOR PURE FINITE-DIFFERENCE OPTION, MIXELM=0) 
 =  139.5    (WHEN MIN. R.F.=1)  AT K=   2, I=  12, J=  40


 TOTAL NUMBER OF POINT SOURCES/SINKS PRESENT IN THE FLOW MODEL =      2343

 MAXIMUM STEPSIZE WHICH MEETS STABILITY CRITERION OF THE SINK & SOURCE TERM
 = 0.1000E+31(WHEN MIN. R.F.=1)  AT K=   0, I=   0, J=   0

 MAXIMUM STEPSIZE WHICH MEETS STABILITY CRITERION OF THE DISPERSION TERM
 =  37.66    (WHEN MIN. R.F.=1)  AT K=   1, I=  12, J=  22
     4 CALLS TO GCG PACKAGE FOR TRANSPORT TIME STEP  39 IN FLOW TIME STEP   1 STRESS PERIOD   4
    10 TOTAL ITERATIONS
 
 SOLVING FOR HEAD 


     3 CALLS TO PCG ROUTINE FOR TIME STEP   1 IN STRESS PERIOD    4
    25 TOTAL ITERATIONS
 FLOW MODEL IS TRANSIENT
 FLOW MODEL CONTAINS CONSTANT-HEAD CELLS


 MAXIMUM STEPSIZE DURING WHICH ANY PARTICLE CANNOT MOVE MORE THAN ONE CELL
 =  236.2    (WHEN MIN. R.F.=1)  AT K=   2, I=  12, J=  40

 MAXIMUM STEPSIZE WHICH MEETS STABILITY CRITERION OF THE ADVECTION TERM
 (FOR PURE FINITE-DIFFERENCE OPTION, MIXELM=0) 
 =  139.3    (WHEN MIN. R.F.=1)  AT K=   2, I=  12, J=  40


 TOTAL NUMBER OF POINT SOURCES/SINKS PRESENT IN THE FLOW MODEL =      2343

 MAXIMUM STEPSIZE WHICH MEETS STABILITY CRITERION OF THE SINK & SOURCE TERM
 = 0.1000E+31(WHEN MIN. R.F.=1)  AT K=   0, I=   0, J=   0

 MAXIMUM STEPSIZE WHICH MEETS STABILITY CRITERION OF THE DISPERSION TERM
 =  37.63    (WHEN MIN. R.F.=1)  AT K=   1, I=  12, J=  22
     4 CALLS TO GCG PACKAGE FOR TRANSPORT TIME STEP  40 IN FLOW TIME STEP   1 STRESS PERIOD   4
    10 TOTAL ITERATIONS
 
 SOLVING FOR HEAD 


     3 CALLS TO PCG ROUTINE FOR TIME STEP   1 IN STRESS PERIOD    4
    25 TOTAL ITERATIONS
 FLOW MODEL IS TRANSIENT
 FLOW MODEL CONTAINS CONSTANT-HEAD CELLS


 MAXIMUM STEPSIZE DURING WHICH ANY PARTICLE CANNOT MOVE MORE THAN ONE CELL
 =  236.0    (WHEN MIN. R.F.=1)  AT K=   2, I=  12, J=  40

 MAXIMUM STEPSIZE WHICH MEETS STABILITY CRITERION OF THE ADVECTION TERM
 (FOR PURE FINITE-DIFFERENCE OPTION, MIXELM=0) 
 =  139.2    (WHEN MIN. R.F.=1)  AT K=   2, I=  12, J=  40


 TOTAL NUMBER OF POINT SOURCES/SINKS PRESENT IN THE FLOW MODEL =      2343

 MAXIMUM STEPSIZE WHICH MEETS STABILITY CRITERION OF THE SINK & SOURCE TERM
 = 0.1000E+31(WHEN MIN. R.F.=1)  AT K=   0, I=   0, J=   0

 MAXIMUM STEPSIZE WHICH MEETS STABILITY CRITERION OF THE DISPERSION TERM
 =  37.59    (WHEN MIN. R.F.=1)  AT K=   1, I=  12, J=  22
     4 CALLS TO GCG PACKAGE FOR TRANSPORT TIME STEP  41 IN FLOW TIME STEP   1 STRESS PERIOD   4
    10 TOTAL ITERATIONS
 
 SOLVING FOR HEAD 


     3 CALLS TO PCG ROUTINE FOR TIME STEP   1 IN STRESS PERIOD    4
    25 TOTAL ITERATIONS
 FLOW MODEL IS TRANSIENT
 FLOW MODEL CONTAINS CONSTANT-HEAD CELLS


 MAXIMUM STEPSIZE DURING WHICH ANY PARTICLE CANNOT MOVE MORE THAN ONE CELL
 =  235.8    (WHEN MIN. R.F.=1)  AT K=   2, I=  12, J=  40

 MAXIMUM STEPSIZE WHICH MEETS STABILITY CRITERION OF THE ADVECTION TERM
 (FOR PURE FINITE-DIFFERENCE OPTION, MIXELM=0) 
 =  139.1    (WHEN MIN. R.F.=1)  AT K=   2, I=  12, J=  40


 TOTAL NUMBER OF POINT SOURCES/SINKS PRESENT IN THE FLOW MODEL =      2343

 MAXIMUM STEPSIZE WHICH MEETS STABILITY CRITERION OF THE SINK & SOURCE TERM
 = 0.1000E+31(WHEN MIN. R.F.=1)  AT K=   0, I=   0, J=   0

 MAXIMUM STEPSIZE WHICH MEETS STABILITY CRITERION OF THE DISPERSION TERM
 =  37.56    (WHEN MIN. R.F.=1)  AT K=   1, I=  12, J=  22
     4 CALLS TO GCG PACKAGE FOR TRANSPORT TIME STEP  42 IN FLOW TIME STEP   1 STRESS PERIOD   4
    10 TOTAL ITERATIONS
 
 SOLVING FOR HEAD 


     3 CALLS TO PCG ROUTINE FOR TIME STEP   1 IN STRESS PERIOD    4
    25 TOTAL ITERATIONS
 FLOW MODEL IS TRANSIENT
 FLOW MODEL CONTAINS CONSTANT-HEAD CELLS


 MAXIMUM STEPSIZE DURING WHICH ANY PARTICLE CANNOT MOVE MORE THAN ONE CELL
 =  235.5    (WHEN MIN. R.F.=1)  AT K=   2, I=  12, J=  40

 MAXIMUM STEPSIZE WHICH MEETS STABILITY CRITERION OF THE ADVECTION TERM
 (FOR PURE FINITE-DIFFERENCE OPTION, MIXELM=0) 
 =  139.0    (WHEN MIN. R.F.=1)  AT K=   2, I=  12, J=  40


 TOTAL NUMBER OF POINT SOURCES/SINKS PRESENT IN THE FLOW MODEL =      2343

 MAXIMUM STEPSIZE WHICH MEETS STABILITY CRITERION OF THE SINK & SOURCE TERM
 = 0.1000E+31(WHEN MIN. R.F.=1)  AT K=   0, I=   0, J=   0

 MAXIMUM STEPSIZE WHICH MEETS STABILITY CRITERION OF THE DISPERSION TERM
 =  37.53    (WHEN MIN. R.F.=1)  AT K=   1, I=  12, J=  22
     4 CALLS TO GCG PACKAGE FOR TRANSPORT TIME STEP  43 IN FLOW TIME STEP   1 STRESS PERIOD   4
    10 TOTAL ITERATIONS
 
 SOLVING FOR HEAD 


     3 CALLS TO PCG ROUTINE FOR TIME STEP   1 IN STRESS PERIOD    4
    25 TOTAL ITERATIONS
 FLOW MODEL IS TRANSIENT
 FLOW MODEL CONTAINS CONSTANT-HEAD CELLS


 MAXIMUM STEPSIZE DURING WHICH ANY PARTICLE CANNOT MOVE MORE THAN ONE CELL
 =  235.3    (WHEN MIN. R.F.=1)  AT K=   2, I=  12, J=  40

 MAXIMUM STEPSIZE WHICH MEETS STABILITY CRITERION OF THE ADVECTION TERM
 (FOR PURE FINITE-DIFFERENCE OPTION, MIXELM=0) 
 =  138.9    (WHEN MIN. R.F.=1)  AT K=   2, I=  12, J=  40


 TOTAL NUMBER OF POINT SOURCES/SINKS PRESENT IN THE FLOW MODEL =      2343

 MAXIMUM STEPSIZE WHICH MEETS STABILITY CRITERION OF THE SINK & SOURCE TERM
 = 0.1000E+31(WHEN MIN. R.F.=1)  AT K=   0, I=   0, J=   0

 MAXIMUM STEPSIZE WHICH MEETS STABILITY CRITERION OF THE DISPERSION TERM
 =  37.50    (WHEN MIN. R.F.=1)  AT K=   1, I=  12, J=  22
     4 CALLS TO GCG PACKAGE FOR TRANSPORT TIME STEP  44 IN FLOW TIME STEP   1 STRESS PERIOD   4
    10 TOTAL ITERATIONS
 
 SOLVING FOR HEAD 


     3 CALLS TO PCG ROUTINE FOR TIME STEP   1 IN STRESS PERIOD    4
    25 TOTAL ITERATIONS
 FLOW MODEL IS TRANSIENT
 FLOW MODEL CONTAINS CONSTANT-HEAD CELLS


 MAXIMUM STEPSIZE DURING WHICH ANY PARTICLE CANNOT MOVE MORE THAN ONE CELL
 =  235.1    (WHEN MIN. R.F.=1)  AT K=   2, I=  12, J=  40

 MAXIMUM STEPSIZE WHICH MEETS STABILITY CRITERION OF THE ADVECTION TERM
 (FOR PURE FINITE-DIFFERENCE OPTION, MIXELM=0) 
 =  138.7    (WHEN MIN. R.F.=1)  AT K=   2, I=  12, J=  40


 TOTAL NUMBER OF POINT SOURCES/SINKS PRESENT IN THE FLOW MODEL =      2343

 MAXIMUM STEPSIZE WHICH MEETS STABILITY CRITERION OF THE SINK & SOURCE TERM
 = 0.1000E+31(WHEN MIN. R.F.=1)  AT K=   0, I=   0, J=   0

 MAXIMUM STEPSIZE WHICH MEETS STABILITY CRITERION OF THE DISPERSION TERM
 =  37.47    (WHEN MIN. R.F.=1)  AT K=   1, I=  12, J=  22
     4 CALLS TO GCG PACKAGE FOR TRANSPORT TIME STEP  45 IN FLOW TIME STEP   1 STRESS PERIOD   4
    10 TOTAL ITERATIONS
 
 SOLVING FOR HEAD 


     3 CALLS TO PCG ROUTINE FOR TIME STEP   1 IN STRESS PERIOD    4
    25 TOTAL ITERATIONS
 FLOW MODEL IS TRANSIENT
 FLOW MODEL CONTAINS CONSTANT-HEAD CELLS


 MAXIMUM STEPSIZE DURING WHICH ANY PARTICLE CANNOT MOVE MORE THAN ONE CELL
 =  234.9    (WHEN MIN. R.F.=1)  AT K=   2, I=  12, J=  40

 MAXIMUM STEPSIZE WHICH MEETS STABILITY CRITERION OF THE ADVECTION TERM
 (FOR PURE FINITE-DIFFERENCE OPTION, MIXELM=0) 
 =  138.6    (WHEN MIN. R.F.=1)  AT K=   2, I=  12, J=  40


 TOTAL NUMBER OF POINT SOURCES/SINKS PRESENT IN THE FLOW MODEL =      2343

 MAXIMUM STEPSIZE WHICH MEETS STABILITY CRITERION OF THE SINK & SOURCE TERM
 = 0.1000E+31(WHEN MIN. R.F.=1)  AT K=   0, I=   0, J=   0

 MAXIMUM STEPSIZE WHICH MEETS STABILITY CRITERION OF THE DISPERSION TERM
 =  37.44    (WHEN MIN. R.F.=1)  AT K=   1, I=  12, J=  22
     4 CALLS TO GCG PACKAGE FOR TRANSPORT TIME STEP  46 IN FLOW TIME STEP   1 STRESS PERIOD   4
    10 TOTAL ITERATIONS
 
 SOLVING FOR HEAD 


     3 CALLS TO PCG ROUTINE FOR TIME STEP   1 IN STRESS PERIOD    4
    25 TOTAL ITERATIONS
 FLOW MODEL IS TRANSIENT
 FLOW MODEL CONTAINS CONSTANT-HEAD CELLS


 MAXIMUM STEPSIZE DURING WHICH ANY PARTICLE CANNOT MOVE MORE THAN ONE CELL
 =  234.6    (WHEN MIN. R.F.=1)  AT K=   2, I=  12, J=  40

 MAXIMUM STEPSIZE WHICH MEETS STABILITY CRITERION OF THE ADVECTION TERM
 (FOR PURE FINITE-DIFFERENCE OPTION, MIXELM=0) 
 =  138.5    (WHEN MIN. R.F.=1)  AT K=   2, I=  12, J=  40


 TOTAL NUMBER OF POINT SOURCES/SINKS PRESENT IN THE FLOW MODEL =      2343

 MAXIMUM STEPSIZE WHICH MEETS STABILITY CRITERION OF THE SINK & SOURCE TERM
 = 0.1000E+31(WHEN MIN. R.F.=1)  AT K=   0, I=   0, J=   0

 MAXIMUM STEPSIZE WHICH MEETS STABILITY CRITERION OF THE DISPERSION TERM
 =  37.41    (WHEN MIN. R.F.=1)  AT K=   1, I=  12, J=  22
     4 CALLS TO GCG PACKAGE FOR TRANSPORT TIME STEP  47 IN FLOW TIME STEP   1 STRESS PERIOD   4
    10 TOTAL ITERATIONS
 
 SOLVING FOR HEAD 


     3 CALLS TO PCG ROUTINE FOR TIME STEP   1 IN STRESS PERIOD    4
    25 TOTAL ITERATIONS
 FLOW MODEL IS TRANSIENT
 FLOW MODEL CONTAINS CONSTANT-HEAD CELLS


 MAXIMUM STEPSIZE DURING WHICH ANY PARTICLE CANNOT MOVE MORE THAN ONE CELL
 =  234.4    (WHEN MIN. R.F.=1)  AT K=   2, I=  12, J=  40

 MAXIMUM STEPSIZE WHICH MEETS STABILITY CRITERION OF THE ADVECTION TERM
 (FOR PURE FINITE-DIFFERENCE OPTION, MIXELM=0) 
 =  138.4    (WHEN MIN. R.F.=1)  AT K=   2, I=  12, J=  40


 TOTAL NUMBER OF POINT SOURCES/SINKS PRESENT IN THE FLOW MODEL =      2343

 MAXIMUM STEPSIZE WHICH MEETS STABILITY CRITERION OF THE SINK & SOURCE TERM
 = 0.1000E+31(WHEN MIN. R.F.=1)  AT K=   0, I=   0, J=   0

 MAXIMUM STEPSIZE WHICH MEETS STABILITY CRITERION OF THE DISPERSION TERM
 =  37.38    (WHEN MIN. R.F.=1)  AT K=   1, I=  12, J=  22
     4 CALLS TO GCG PACKAGE FOR TRANSPORT TIME STEP  48 IN FLOW TIME STEP   1 STRESS PERIOD   4
    10 TOTAL ITERATIONS
 
 SOLVING FOR HEAD 


     3 CALLS TO PCG ROUTINE FOR TIME STEP   1 IN STRESS PERIOD    4
    25 TOTAL ITERATIONS
 FLOW MODEL IS TRANSIENT
 FLOW MODEL CONTAINS CONSTANT-HEAD CELLS


 MAXIMUM STEPSIZE DURING WHICH ANY PARTICLE CANNOT MOVE MORE THAN ONE CELL
 =  234.2    (WHEN MIN. R.F.=1)  AT K=   2, I=  12, J=  40

 MAXIMUM STEPSIZE WHICH MEETS STABILITY CRITERION OF THE ADVECTION TERM
 (FOR PURE FINITE-DIFFERENCE OPTION, MIXELM=0) 
 =  138.3    (WHEN MIN. R.F.=1)  AT K=   2, I=  12, J=  40


 TOTAL NUMBER OF POINT SOURCES/SINKS PRESENT IN THE FLOW MODEL =      2343

 MAXIMUM STEPSIZE WHICH MEETS STABILITY CRITERION OF THE SINK & SOURCE TERM
 = 0.1000E+31(WHEN MIN. R.F.=1)  AT K=   0, I=   0, J=   0

 MAXIMUM STEPSIZE WHICH MEETS STABILITY CRITERION OF THE DISPERSION TERM
 =  37.35    (WHEN MIN. R.F.=1)  AT K=   1, I=  12, J=  22
     4 CALLS TO GCG PACKAGE FOR TRANSPORT TIME STEP  49 IN FLOW TIME STEP   1 STRESS PERIOD   4
    10 TOTAL ITERATIONS
 
 SOLVING FOR HEAD 


     3 CALLS TO PCG ROUTINE FOR TIME STEP   1 IN STRESS PERIOD    4
    25 TOTAL ITERATIONS
 FLOW MODEL IS TRANSIENT
 FLOW MODEL CONTAINS CONSTANT-HEAD CELLS


 MAXIMUM STEPSIZE DURING WHICH ANY PARTICLE CANNOT MOVE MORE THAN ONE CELL
 =  234.0    (WHEN MIN. R.F.=1)  AT K=   2, I=  12, J=  40

 MAXIMUM STEPSIZE WHICH MEETS STABILITY CRITERION OF THE ADVECTION TERM
 (FOR PURE FINITE-DIFFERENCE OPTION, MIXELM=0) 
 =  138.2    (WHEN MIN. R.F.=1)  AT K=   2, I=  12, J=  40


 TOTAL NUMBER OF POINT SOURCES/SINKS PRESENT IN THE FLOW MODEL =      2343

 MAXIMUM STEPSIZE WHICH MEETS STABILITY CRITERION OF THE SINK & SOURCE TERM
 = 0.1000E+31(WHEN MIN. R.F.=1)  AT K=   0, I=   0, J=   0

 MAXIMUM STEPSIZE WHICH MEETS STABILITY CRITERION OF THE DISPERSION TERM
 =  37.32    (WHEN MIN. R.F.=1)  AT K=   1, I=  12, J=  22
     4 CALLS TO GCG PACKAGE FOR TRANSPORT TIME STEP  50 IN FLOW TIME STEP   1 STRESS PERIOD   4
    10 TOTAL ITERATIONS
 
 SOLVING FOR HEAD 


     3 CALLS TO PCG ROUTINE FOR TIME STEP   1 IN STRESS PERIOD    4
    25 TOTAL ITERATIONS
 FLOW MODEL IS TRANSIENT
 FLOW MODEL CONTAINS CONSTANT-HEAD CELLS


 MAXIMUM STEPSIZE DURING WHICH ANY PARTICLE CANNOT MOVE MORE THAN ONE CELL
 =  233.8    (WHEN MIN. R.F.=1)  AT K=   2, I=  12, J=  40

 MAXIMUM STEPSIZE WHICH MEETS STABILITY CRITERION OF THE ADVECTION TERM
 (FOR PURE FINITE-DIFFERENCE OPTION, MIXELM=0) 
 =  138.1    (WHEN MIN. R.F.=1)  AT K=   2, I=  12, J=  40


 TOTAL NUMBER OF POINT SOURCES/SINKS PRESENT IN THE FLOW MODEL =      2343

 MAXIMUM STEPSIZE WHICH MEETS STABILITY CRITERION OF THE SINK & SOURCE TERM
 = 0.1000E+31(WHEN MIN. R.F.=1)  AT K=   0, I=   0, J=   0

 MAXIMUM STEPSIZE WHICH MEETS STABILITY CRITERION OF THE DISPERSION TERM
 =  37.29    (WHEN MIN. R.F.=1)  AT K=   1, I=  12, J=  22
     4 CALLS TO GCG PACKAGE FOR TRANSPORT TIME STEP  51 IN FLOW TIME STEP   1 STRESS PERIOD   4
    10 TOTAL ITERATIONS
 
 SOLVING FOR HEAD 


     3 CALLS TO PCG ROUTINE FOR TIME STEP   1 IN STRESS PERIOD    4
    25 TOTAL ITERATIONS
 FLOW MODEL IS TRANSIENT
 FLOW MODEL CONTAINS CONSTANT-HEAD CELLS


 MAXIMUM STEPSIZE DURING WHICH ANY PARTICLE CANNOT MOVE MORE THAN ONE CELL
 =  233.6    (WHEN MIN. R.F.=1)  AT K=   2, I=  12, J=  40

 MAXIMUM STEPSIZE WHICH MEETS STABILITY CRITERION OF THE ADVECTION TERM
 (FOR PURE FINITE-DIFFERENCE OPTION, MIXELM=0) 
 =  138.0    (WHEN MIN. R.F.=1)  AT K=   2, I=  12, J=  40


 TOTAL NUMBER OF POINT SOURCES/SINKS PRESENT IN THE FLOW MODEL =      2343

 MAXIMUM STEPSIZE WHICH MEETS STABILITY CRITERION OF THE SINK & SOURCE TERM
 = 0.1000E+31(WHEN MIN. R.F.=1)  AT K=   0, I=   0, J=   0

 MAXIMUM STEPSIZE WHICH MEETS STABILITY CRITERION OF THE DISPERSION TERM
 =  37.26    (WHEN MIN. R.F.=1)  AT K=   1, I=  12, J=  22
     4 CALLS TO GCG PACKAGE FOR TRANSPORT TIME STEP  52 IN FLOW TIME STEP   1 STRESS PERIOD   4
    10 TOTAL ITERATIONS
  MAXIMUM CONCENTRATION CHANGES FOR EACH ITERATION:
  MAX. CHANGE LAYER,ROW,COL MAX. CHANGE LAYER,ROW,COL MAX. CHANGE LAYER,ROW,COL MAX. CHANGE LAYER,ROW,COL MAX. CHANGE LAYER,ROW,COL
 ------------------------------------------------------------------------------------------------------------------------------------
   0.1534     (  2, 39, 49)  0.5513E-03 (  3, 44, 45)  0.1654E-05 (  4, 43, 45)  0.3725E-08 (  2, 11, 31)  0.1058E-02 (  3, 44, 45)
   0.6482E-05 (  4, 44, 45)  0.2235E-07 (  3, 43, 45)  0.3338E-04 (  3, 45, 45)  0.1937E-06 (  3, 44, 45)   0.000     (  1,  1,  1)



 >>>>>>>>>>>>>>>>>>>>>>>>>>>>>>>>>>>>>>>>>>>>>>>>>>>>>>>FOR COMPONENT NO. 01<<<<<<<<<<<<<<<<<<<<<<<<<<<<<<<<<<<<<<<<<<<<<<<<<<<<<<<


                                            -------------------------------------------
                                                      TRANSPORT STEP NO.   52
                                            -------------------------------------------

 TOTAL ELAPSED TIME SINCE BEGINNING OF SIMULATION =   29219.00       d
 .....................................................................

                     CUMMULATIVE MASS BUDGETS AT END OF TRANSPORT STEP   52, TIME STEP    1, STRESS PERIOD    4
                     ------------------------------------------------------------------------------------------

                                                             IN                           OUT
                                                      ----------------             ----------------
                               CONSTANT CONCENTRATION:   0.4869241E+10              -0.1327282E+11
                                        CONSTANT HEAD:    0.000000                    0.000000    
                                             RECHARGE:    0.000000                    0.000000    
                               MASS STOR (FLOW MODEL):    0.000000                    0.000000    
                                MASS STORAGE (SOLUTE):   0.8407564E+10               -4682220.    
                            ---------------------------------------------------------------------------
                                              [TOTAL]:   0.1327681E+11    k         -0.1327750E+11    k

                                                          NET (IN - OUT):   -698368.0    
                                                   DISCREPANCY (PERCENT):  -0.5259922E-02

 HEAD WILL BE SAVED ON UNIT   99 AT END OF TIME STEP   1, STRESS PERIOD    4
1
  MASS BUDGET FOR ENTIRE MODEL AT END OF TIME STEP  1 IN STRESS PERIOD   4
  ------------------------------------------------------------------------------

     CUMULATIVE MASS      M       RATES FOR THIS TIME STEP      M/T
     ------------------                 ------------------------

           IN:                                      IN:
           ---                                      ---
             STORAGE =           0.0000               STORAGE =           0.0000
       CONSTANT HEAD =  9664818176.0000         CONSTANT HEAD =     1509570.1250
            RECHARGE =367282683904.0000              RECHARGE =    12570000.0000
                DCDT =  6167086080.0000                  DCDT =       93416.5156

            TOTAL IN =383114608640.0000              TOTAL IN =    14172987.0000

          OUT:                                     OUT:
          ----                                     ----
             STORAGE =           0.0000               STORAGE =           0.0000
       CONSTANT HEAD =383114084352.0000         CONSTANT HEAD =    14173018.0000
            RECHARGE =           0.0000              RECHARGE =           0.0000
                DCDT =     1344045.3750                  DCDT =           0.4947

           TOTAL OUT =383115427840.0000             TOTAL OUT =    14173018.0000

            IN - OUT =     -819200.0000              IN - OUT =         -31.0000

 PERCENT DISCREPANCY =          -0.00     PERCENT DISCREPANCY =          -0.00



0


          TIME SUMMARY AT END OF TRANSPORT STEP   52 IN TIME STEP    1 IN STRESS PERIOD   4
                    SECONDS     MINUTES      HOURS       DAYS        YEARS
                    -----------------------------------------------------------
  TRANS STEP LENGTH 8.04448E+06 1.34075E+05  2234.6      93.107     0.25491    
   TIME STEP LENGTH 6.31152E+08 1.05192E+07 1.75320E+05  7305.0      20.000    
 STRESS PERIOD TIME 6.31152E+08 1.05192E+07 1.75320E+05  7305.0      20.000    
         TOTAL TIME 2.52452E+09 4.20754E+07 7.01256E+05  29219.      79.997    
1
