                                  MODFLOW-2005     
      U.S. GEOLOGICAL SURVEY MODULAR FINITE-DIFFERENCE GROUND-WATER FLOW MODEL
                            VERSION 1.8.00 12/18/2009

 LIST FILE: imodflow.list
                         UNIT   10

 OPENING imodflow.dis                                                                                                                                                                                                                                                                                                
 FILE TYPE:DIS   UNIT   11   STATUS:OLD    
 FORMAT:FORMATTED              ACCESS:SEQUENTIAL          

 OPENING imodflow.bas6                                                                                                                                                                                                                                                                                               
 FILE TYPE:BAS6   UNIT   12   STATUS:OLD    
 FORMAT:FORMATTED              ACCESS:SEQUENTIAL          

 OPENING imodflow.bcf6                                                                                                                                                                                                                                                                                               
 FILE TYPE:BCF6   UNIT   13   STATUS:OLD    
 FORMAT:FORMATTED              ACCESS:SEQUENTIAL          

 OPENING imodflow.oc                                                                                                                                                                                                                                                                                                 
 FILE TYPE:OC   UNIT   14   STATUS:OLD    
 FORMAT:FORMATTED              ACCESS:SEQUENTIAL          

 OPENING imodflow.met                                                                                                                                                                                                                                                                                                
 FILE TYPE:MET   UNIT   15   STATUS:OLD    
 FORMAT:FORMATTED              ACCESS:SEQUENTIAL          

 OPENING imodflow.wel                                                                                                                                                                                                                                                                                                
 FILE TYPE:WEL   UNIT   19   STATUS:OLD    
 FORMAT:FORMATTED              ACCESS:SEQUENTIAL          

 OPENING imodflow.hfb6                                                                                                                                                                                                                                                                                               
 FILE TYPE:HFB6   UNIT   21   STATUS:OLD    
 FORMAT:FORMATTED              ACCESS:SEQUENTIAL          

 OPENING imodflow.pcg                                                                                                                                                                                                                                                                                                
 FILE TYPE:PCG   UNIT   22   STATUS:OLD    
 FORMAT:FORMATTED              ACCESS:SEQUENTIAL          
# data:                                                                                                                                                                                                                                                                                                     

 BAS -- BASIC PACKAGE, VERSION 7, 5/2/2005 INPUT READ FROM UNIT   12

 DISCRETIZATION INPUT DATA READ FROM UNIT   11
 # Discretization file
    2 LAYERS       100 ROWS       100 COLUMNS
    1 STRESS PERIOD(S) IN SIMULATION
 MODEL TIME UNIT IS DAYS
 MODEL LENGTH UNIT IS METERS
  Confining bed flag for each layer:
   1   0

                     DELR =   25.0000    

                     DELC =   25.0000    

 TOP ELEVATION OF LAYER 1 =   0.00000    

   MODEL LAYER BOTTOM EL. =   0.00000     FOR LAYER   1

 BOT. EL. OF QUASI-3D BED =   0.00000     FOR LAYER   1

   MODEL LAYER BOTTOM EL. =   0.00000     FOR LAYER   2


 STRESS PERIOD     LENGTH       TIME STEPS     MULTIPLIER FOR DELT    SS FLAG
 ----------------------------------------------------------------------------
        1         0.000000          1                    1.000         SS

 STEADY-STATE SIMULATION



 
 # Basic Package file                                                            
 THE FREE FORMAT OPTION HAS BEEN SELECTED

 OPENING FILE ON UNIT   99:
 P:\1206764-IMOD\IMOD30\TESTBANK\RUNS\TEST_ALL\BOUNDARY\IMODFLOW_IBOUND1.IDF                                                                                                                             
  FILE IDENTIFIED AS IDF

           BOUNDARY ARRAY =              1 FOR LAYER   2

 AQUIFER HEAD WILL BE SET TO  -999.99     AT ALL NO-FLOW NODES (IBOUND=0).

 OPENING FILE ON UNIT   99:
 P:\1206764-IMOD\IMOD30\TESTBANK\RUNS\TEST_ALL\STARTING_HEADS\IMODFLOW_SHEAD1.IDF                                                                                                                        
  FILE IDENTIFIED AS IDF

 OPENING FILE ON UNIT   99:
 P:\1206764-IMOD\IMOD30\TESTBANK\RUNS\TEST_ALL\STARTING_HEADS\IMODFLOW_SHEAD2.IDF                                                                                                                        
  FILE IDENTIFIED AS IDF

 OUTPUT CONTROL IS SPECIFIED ONLY AT TIME STEPS FOR WHICH OUTPUT IS DESIRED
 HEAD PRINT FORMAT CODE IS   0    DRAWDOWN PRINT FORMAT CODE IS   0
 HEADS WILL BE SAVED ON UNIT   28    DRAWDOWNS WILL BE SAVED ON UNIT    0

 BCF -- BLOCK-CENTERED FLOW PACKAGE, VERSION 7, 5/2/2005
         INPUT READ FROM UNIT 13
 STEADY-STATE SIMULATION
 CELL-BY-CELL FLOWS WILL BE SAVED ON UNIT 29
 HEAD AT CELLS THAT CONVERT TO DRY=  -9999.0    
 WETTING CAPABILITY IS NOT ACTIVE
      LAYER  LAYER-TYPE CODE     INTERBLOCK T
      --------------------------------------------
         1            0          0 -- HARMONIC    
         2            0          0 -- HARMONIC    

 COLUMN TO ROW ANISOTROPY =   1.00000    

 OPENING FILE ON UNIT   99:
 P:\1206764-IMOD\IMOD30\TESTBANK\RUNS\TEST_ALL\TRANSMISSIVITY\IMODFLOW_KD1.IDF                                                                                                                           
  FILE IDENTIFIED AS IDF

 OPENING FILE ON UNIT   99:
 P:\1206764-IMOD\IMOD30\TESTBANK\RUNS\TEST_ALL\VERTICAL_RESISTANCE\IMODFLOW_C1.IDF                                                                                                                       
  FILE IDENTIFIED AS IDF

 OPENING FILE ON UNIT   99:
 P:\1206764-IMOD\IMOD30\TESTBANK\RUNS\TEST_ALL\TRANSMISSIVITY\IMODFLOW_KD2.IDF                                                                                                                           
  FILE IDENTIFIED AS IDF

 WEL -- WELL PACKAGE, VERSION 7, 5/2/2005 INPUT READ FROM UNIT   19
 # Well Package file
 No named parameters
 MAXIMUM OF      1 ACTIVE WELLS AT ONE TIME
 CELL-BY-CELL FLOWS WILL BE SAVED ON UNIT   33
 LISTS OF WELL CELLS WILL NOT BE PRINTED


     0 Well parameters

 HFB -- HORIZONTAL-FLOW BARRIER PACKAGE, VERSION 7, 5/2/2005.
   INPUT READ FROM UNIT   21
 # Horizontal Flow Barrier Package file
     0 PARAMETERS DEFINE A MAXIMUM OF      0 HORIZONTAL FLOW BARRIERS
      1 HORIZONTAL FLOW BARRIERS NOT DEFINED BY PARAMETERS
 LISTS OF HORIZONTAL FLOW BARRIER CELLS WILL NOT BE PRINTED
          Applying factor instead of hydraulic characteristic


     0 HFB parameters

      1 BARRIERS NOT DEFINED BY PARAMETERS
  DATA IDENTIFIED AS LCD

 OPENING FILE ON UNIT   99:
 P:\1206764-IMOD\IMOD30\TESTBANK\RUNS\TEST_ALL\HORIZONTAL_BARRIER\IMODFLOW_HFB2.GEN                                                                                                                      
  FILE IDENTIFIED AS GEN

 OPENING FILE ON UNIT   99:
 P:\1206764-IMOD\IMOD30\TESTBANK\RUNS\TEST_ALL\HORIZONTAL_BARRIER\IMODFLOW_HFB2.GEN                                                                                                                      
  FILE IDENTIFIED AS GEN

    268 HFB BARRIERS

 PCG -- CONJUGATE-GRADIENT SOLUTION PACKAGE, VERSION 7, 5/2/2005
 # Preconditioned Conjugate-Gradient Package
 MAXIMUM OF    150 CALLS OF SOLUTION ROUTINE
 MAXIMUM OF     20 INTERNAL ITERATIONS PER CALL TO SOLUTION ROUTINE
 MATRIX PRECONDITIONING TYPE :    1



                                    SOLUTION BY THE CONJUGATE-GRADIENT METHOD
                                   -------------------------------------------
                    MAXIMUM NUMBER OF CALLS TO PCG ROUTINE =      150
                        MAXIMUM ITERATIONS PER CALL TO PCG =       20
                               MATRIX PRECONDITIONING TYPE =        1
        RELAXATION FACTOR (ONLY USED WITH PRECOND. TYPE 1) =    0.98000E+00
 PARAMETER OF POLYNOMIAL PRECOND. = 2 (2) OR IS CALCULATED :        1
                         HEAD CHANGE CRITERION FOR CLOSURE =    0.10000E-03
                     RESIDUAL CHANGE CRITERION FOR CLOSURE =    0.10000E+02
            PCG HEAD AND RESIDUAL CHANGE PRINTOUT INTERVAL =        1
     PRINTING FROM SOLVER IS LIMITED(1) OR SUPPRESSED (>1) =        0
                            STEADY-STATE DAMPING PARAMETER =    0.10000E+01
                               TRANSIENT DAMPING PARAMETER =    0.10000E+01
1
                            STRESS PERIOD NO.    1, LENGTH =   0.000000    
                            -----------------------------------------------

                              NUMBER OF TIME STEPS =     1

                               MULTIPLIER FOR DELT =     1.000

                            INITIAL TIME STEP SIZE =   0.000000    
  DATA IDENTIFIED AS GCD

 OPENING FILE ON UNIT   99:
 P:\1206764-IMOD\IMOD30\TESTBANK\RUNS\TEST_ALL\WELLS\IMODFLOW_WELL1.IPF                                                                                                                                  
  FILE IDENTIFIED AS IPF

 OPENING FILE ON UNIT   99:
 P:\1206764-IMOD\IMOD30\TESTBANK\RUNS\TEST_ALL\WELLS\IMODFLOW_WELL2.IPF                                                                                                                                  
  FILE IDENTIFIED AS IPF

      2 WELLS
 
 SOLVING FOR HEAD 
 
 SOLVING FOR HEAD 
 
 SOLVING FOR HEAD 
 
 SOLVING FOR HEAD 
 
 SOLVING FOR HEAD 


     5 CALLS TO PCG ROUTINE FOR TIME STEP   1 IN STRESS PERIOD    1
    75 TOTAL ITERATIONS

 MAXIMUM HEAD CHANGE FOR EACH ITERATION (1 INDICATES THE FIRST INNER ITERATION):

    HEAD CHANGE    HEAD CHANGE    HEAD CHANGE    HEAD CHANGE    HEAD CHANGE 
   LAYER,ROW,COL  LAYER,ROW,COL  LAYER,ROW,COL  LAYER,ROW,COL  LAYER,ROW,COL
 ---------------------------------------------------------------------------
  1  -14.97      0   10.61      0  -5.404      0   4.363      0  -2.504    
   (  2, 74, 24)  (  2, 75, 26)  (  2, 52, 49)  (  2, 52, 49)  (  2, 74, 27)
  0   1.755      0  -2.068      0  -1.568      0 -0.8731      0 -0.5235    
   (  2, 54, 47)  (  2, 54, 47)  (  2, 74, 27)  (  2, 72, 29)  (  2, 71, 30)
  0 -0.7435      0  0.4119      0 -0.3099      0 -0.3840      0 -0.2827    
   (  2, 56, 45)  (  2, 56, 45)  (  2, 56, 45)  (  2, 55, 46)  (  2, 52, 49)
  0 -0.1675      0 -0.1453      0  0.2023      0 -0.1558      0  0.8449E-01
   (  2, 71, 30)  (  2, 69, 31)  (  2, 52, 49)  (  2, 52, 49)  (  2, 58, 43)
  1 -0.6979E-01  0  0.7595E-01  0 -0.8048E-01  0 -0.4501E-01  0 -0.4476E-01
   (  2, 58, 43)  (  2, 52, 49)  (  2, 52, 49)  (  2, 58, 43)  (  2,100, 58)
  0  0.5687E-01  0  0.7351E-01  0  0.4565E-01  0  0.5941E-01  0  0.3382E-01
   (  2, 52, 49)  (  2, 55, 46)  (  2, 54, 47)  (  2, 52, 49)  (  2, 54, 47)
  0  0.3131E-01  0 -0.2602E-01  0  0.2026E-01  0 -0.1180E-01  0 -0.9707E-02
   (  2, 56, 45)  (  2, 56, 45)  (  2, 56, 45)  (  2, 72, 29)  (  2, 74, 27)
  0  0.1374E-01  0 -0.1515E-01  0 -0.6149E-02  0 -0.6438E-02  0 -0.4116E-02
   (  2, 52, 49)  (  2, 52, 49)  (  2, 60, 41)  (  2, 52, 49)  (  2, 60, 41)
  1 -0.3502E-02  0  0.3966E-02  0  0.2837E-02  0  0.6893E-02  0  0.5637E-02
   (  2, 74, 27)  (  2, 59, 42)  (  2, 60, 41)  (  2, 52, 49)  (  2, 53, 48)
  0  0.3845E-02  0  0.4801E-02  0  0.3994E-02  0 -0.3952E-02  0  0.4827E-02
   (  2, 74, 27)  (  2, 75, 26)  (  2, 71, 30)  (  2, 54, 47)  (  2, 54, 47)
  0  0.3149E-02  0  0.2966E-02  0  0.1612E-02  0  0.1558E-02  0  0.1457E-02
   (  2, 52, 49)  (  2, 56, 45)  (  2, 55, 46)  (  2, 52, 49)  (  2, 55, 46)
  0  0.6327E-03  0  0.5702E-03  0 -0.8242E-03  0  0.9695E-03  0 -0.5271E-03
   (  2, 57, 44)  (  1,  1, 38)  (  2, 52, 49)  (  2, 52, 49)  (  2, 57, 44)
  1 -0.5147E-03  0 -0.5474E-03  0  0.5750E-03  0 -0.3047E-03  0 -0.2472E-03
   (  2, 58, 43)  (  2, 52, 49)  (  2, 52, 49)  (  2, 58, 43)  (  2, 52, 49)
  0 -0.3615E-03  0  0.3545E-03  0 -0.2590E-03  0 -0.2385E-03  0  0.3027E-03
   (  2, 55, 46)  (  2, 55, 46)  (  2, 55, 46)  (  2, 56, 45)  (  2, 56, 45)
  0  0.1791E-03  0  0.2236E-03  0  0.1184E-03  0  0.4643E-04  1  0.5289E-04
   (  2, 52, 49)  (  2, 54, 47)  (  2, 52, 49)  (  2, 60, 41)  (  2, 59, 42)

 MAXIMUM RESIDUAL FOR EACH ITERATION (1 INDICATES THE FIRST INNER ITERATION):

    RESIDUAL       RESIDUAL       RESIDUAL       RESIDUAL       RESIDUAL    
   LAYER,ROW,COL  LAYER,ROW,COL  LAYER,ROW,COL  LAYER,ROW,COL  LAYER,ROW,COL
 ---------------------------------------------------------------------------
  1  -881.8      0   392.1      0   487.5      0  -203.0      0  -114.2    
   (  2, 75, 26)  (  2, 75, 26)  (  2, 53, 48)  (  2, 75, 26)  (  2, 54, 47)
  0   185.1      0  -91.94      0  -89.51      0   31.40      0   43.97    
   (  2, 54, 47)  (  1, 49, 49)  (  2, 74, 27)  (  2, 73, 26)  (  2, 56, 45)
  0  -44.64      0   32.98      0   20.01      0  -21.59      0  -13.53    
   (  2, 56, 45)  (  2, 56, 45)  (  2, 55, 46)  (  2, 55, 46)  (  2, 74, 24)
  0   9.844      0   10.17      0  -19.96      0  -7.733      0   6.265    
   (  2, 73, 28)  (  2, 53, 48)  (  2, 53, 48)  (  2, 58, 43)  (  2, 58, 43)
  1  -5.717      0  -7.303      0   5.594      0  -3.467      0  -2.880    
   (  2, 58, 43)  (  2, 53, 48)  (  2, 53, 48)  (  2, 58, 43)  (  2, 74, 24)
  0  -5.211      0   4.350      0   3.450      0  -2.210      0  -1.771    
   (  2, 55, 46)  (  2, 55, 46)  (  2, 54, 47)  (  2, 54, 47)  (  2, 56, 45)
  0   2.544      0  -1.658      0  0.7637      0  0.8042      0  0.6471    
   (  2, 56, 45)  (  2, 56, 45)  (  2, 56, 45)  (  2, 74, 27)  (  2, 59, 42)
  0  -1.756      0 -0.5751      0  0.5857      0 -0.4009      0  0.2321    
   (  2, 53, 48)  (  2, 59, 42)  (  2, 59, 42)  (  2, 59, 42)  (  1, 49, 49)
  1 -0.2877      0  0.2312      0 -0.2272      0 -0.6659      0  0.2354    
   (  2, 59, 42)  (  2, 59, 42)  (  2, 59, 42)  (  2, 53, 48)  (  2, 59, 42)
  0 -0.2598      0  0.2253      0  0.2708      0 -0.3702      0  0.1753    
   (  2, 75, 26)  (  2, 75, 26)  (  2, 54, 47)  (  2, 54, 47)  (  2, 56, 45)
  0 -0.2234      0  0.1480      0  0.9723E-01  0 -0.8788E-01  0  0.4268E-01
   (  2, 56, 45)  (  2, 56, 45)  (  2, 55, 46)  (  2, 55, 46)  (  2, 55, 46)
  0  0.3850E-01  0  0.4406E-01  0  0.9458E-01  0 -0.3969E-01  0  0.4786E-01
   (  2, 57, 44)  (  2, 58, 43)  (  2, 53, 48)  (  2, 58, 43)  (  2, 58, 43)
  1 -0.3792E-01  0  0.5768E-01  0  0.2704E-01  0 -0.1641E-01  0 -0.1359E-01
   (  2, 58, 43)  (  2, 53, 48)  (  2, 58, 43)  (  2, 58, 43)  (  2, 57, 44)
  0 -0.2368E-01  0  0.2161E-01  0  0.2063E-01  0 -0.2395E-01  0  0.1683E-01
   (  2, 55, 46)  (  2, 55, 46)  (  2, 56, 45)  (  2, 56, 45)  (  2, 56, 45)
  0 -0.1490E-01  0  0.1304E-01  0  0.3375E-02  0 -0.4293E-02  1  0.3573E-02
   (  2, 54, 47)  (  2, 54, 47)  (  2, 59, 42)  (  2, 59, 42)  (  2, 59, 42)



 OUTPUT CONTROL FOR STRESS PERIOD    1   TIME STEP   1
    SAVE HEAD FOR ALL LAYERS
    SAVE BUDGET
    SAVE BUDGET
 INFO. Sign of cbc-flux FLOW RIGHT FACE is swapped!
 INFO. Sign of cbc-flux FLOW FRONT FACE is swapped!
 INFO. Sign of cbc-flux FLOW LOWER FACE is swapped!

 HEAD WILL BE SAVED ON UNIT   28 AT END OF TIME STEP   1, STRESS PERIOD    1
1
  VOLUMETRIC BUDGET FOR ENTIRE MODEL AT END OF TIME STEP  1 IN STRESS PERIOD   1
  ------------------------------------------------------------------------------

     CUMULATIVE VOLUMES      L**3       RATES FOR THIS TIME STEP      L**3/T
     ------------------                 ------------------------

           IN:                                      IN:
           ---                                      ---
             STORAGE =           0.0000               STORAGE =           0.0000
       CONSTANT HEAD =           0.0000         CONSTANT HEAD =        5000.0952
               WELLS =           0.0000                 WELLS =           0.0000

            TOTAL IN =           0.0000              TOTAL IN =        5000.0952

          OUT:                                     OUT:
          ----                                     ----
             STORAGE =           0.0000               STORAGE =           0.0000
       CONSTANT HEAD =           0.0000         CONSTANT HEAD =           0.0000
               WELLS =           0.0000                 WELLS =        5000.0000

           TOTAL OUT =           0.0000             TOTAL OUT =        5000.0000

            IN - OUT =           0.0000              IN - OUT =       9.5215E-02

 PERCENT DISCREPANCY =           0.00     PERCENT DISCREPANCY =           0.00






          TIME SUMMARY AT END OF TIME STEP   1 IN STRESS PERIOD    1
                    SECONDS     MINUTES      HOURS       DAYS        YEARS
                    -----------------------------------------------------------
   TIME STEP LENGTH  0.0000      0.0000      0.0000      0.0000      0.0000    
 STRESS PERIOD TIME  0.0000      0.0000      0.0000      0.0000      0.0000    
         TOTAL TIME  0.0000      0.0000      0.0000      0.0000      0.0000    
1

 Run end date and time (yyyy/mm/dd hh:mm:ss): 2014/11/20  9:45:07
 Elapsed run time:  5.458 Seconds

