                                  MODFLOW-2005     
      U.S. GEOLOGICAL SURVEY MODULAR FINITE-DIFFERENCE GROUND-WATER FLOW MODEL
                            VERSION 1.8.00 12/18/2009

 LIST FILE: imodflow.list
                         UNIT   10

 OPENING imodflow.dis                                                                                                                                                                                                                                                                                                
 FILE TYPE:DIS   UNIT   11   STATUS:OLD    
 FORMAT:FORMATTED              ACCESS:SEQUENTIAL          

 OPENING imodflow.bas6                                                                                                                                                                                                                                                                                               
 FILE TYPE:BAS6   UNIT   12   STATUS:OLD    
 FORMAT:FORMATTED              ACCESS:SEQUENTIAL          

 OPENING imodflow.bcf6                                                                                                                                                                                                                                                                                               
 FILE TYPE:BCF6   UNIT   13   STATUS:OLD    
 FORMAT:FORMATTED              ACCESS:SEQUENTIAL          

 OPENING imodflow.oc                                                                                                                                                                                                                                                                                                 
 FILE TYPE:OC   UNIT   14   STATUS:OLD    
 FORMAT:FORMATTED              ACCESS:SEQUENTIAL          

 OPENING imodflow.met                                                                                                                                                                                                                                                                                                
 FILE TYPE:MET   UNIT   15   STATUS:OLD    
 FORMAT:FORMATTED              ACCESS:SEQUENTIAL          

 OPENING imodflow.pcg                                                                                                                                                                                                                                                                                                
 FILE TYPE:PCG   UNIT   22   STATUS:OLD    
 FORMAT:FORMATTED              ACCESS:SEQUENTIAL          

 OPENING imodflow.evt                                                                                                                                                                                                                                                                                                
 FILE TYPE:EVT   UNIT   25   STATUS:OLD    
 FORMAT:FORMATTED              ACCESS:SEQUENTIAL          
# data:                                                                                                                                                                                                                                                                                                     

 BAS -- BASIC PACKAGE, VERSION 7, 5/2/2005 INPUT READ FROM UNIT   12

 DISCRETIZATION INPUT DATA READ FROM UNIT   11
 # Discretization file
    2 LAYERS       100 ROWS       100 COLUMNS
    1 STRESS PERIOD(S) IN SIMULATION
 MODEL TIME UNIT IS DAYS
 MODEL LENGTH UNIT IS METERS
  Confining bed flag for each layer:
   1   0

                     DELR =   25.0000    

                     DELC =   25.0000    

 TOP ELEVATION OF LAYER 1 =   0.00000    

   MODEL LAYER BOTTOM EL. =   0.00000     FOR LAYER   1

 BOT. EL. OF QUASI-3D BED =   0.00000     FOR LAYER   1

   MODEL LAYER BOTTOM EL. =   0.00000     FOR LAYER   2


 STRESS PERIOD     LENGTH       TIME STEPS     MULTIPLIER FOR DELT    SS FLAG
 ----------------------------------------------------------------------------
        1         0.000000          1                    1.000         SS

 STEADY-STATE SIMULATION



 
 # Basic Package file                                                            
 THE FREE FORMAT OPTION HAS BEEN SELECTED

 OPENING FILE ON UNIT   99:
 P:\1206764-IMOD\IMOD30\TESTBANK\RUNS\TEST_ALL\BOUNDARY\IMODFLOW_IBOUND1.IDF                                                                                                                             
  FILE IDENTIFIED AS IDF

           BOUNDARY ARRAY =              1 FOR LAYER   2

 AQUIFER HEAD WILL BE SET TO  -999.99     AT ALL NO-FLOW NODES (IBOUND=0).

 OPENING FILE ON UNIT   99:
 P:\1206764-IMOD\IMOD30\TESTBANK\RUNS\TEST_ALL\STARTING_HEADS\IMODFLOW_SHEAD1.IDF                                                                                                                        
  FILE IDENTIFIED AS IDF

 OPENING FILE ON UNIT   99:
 P:\1206764-IMOD\IMOD30\TESTBANK\RUNS\TEST_ALL\STARTING_HEADS\IMODFLOW_SHEAD2.IDF                                                                                                                        
  FILE IDENTIFIED AS IDF

 OUTPUT CONTROL IS SPECIFIED ONLY AT TIME STEPS FOR WHICH OUTPUT IS DESIRED
 HEAD PRINT FORMAT CODE IS   0    DRAWDOWN PRINT FORMAT CODE IS   0
 HEADS WILL BE SAVED ON UNIT   28    DRAWDOWNS WILL BE SAVED ON UNIT    0

 BCF -- BLOCK-CENTERED FLOW PACKAGE, VERSION 7, 5/2/2005
         INPUT READ FROM UNIT 13
 STEADY-STATE SIMULATION
 CELL-BY-CELL FLOWS WILL BE SAVED ON UNIT 29
 HEAD AT CELLS THAT CONVERT TO DRY=  -9999.0    
 WETTING CAPABILITY IS NOT ACTIVE
      LAYER  LAYER-TYPE CODE     INTERBLOCK T
      --------------------------------------------
         1            0          0 -- HARMONIC    
         2            0          0 -- HARMONIC    

 COLUMN TO ROW ANISOTROPY =   1.00000    

 OPENING FILE ON UNIT   99:
 P:\1206764-IMOD\IMOD30\TESTBANK\RUNS\TEST_ALL\TRANSMISSIVITY\IMODFLOW_KD1.IDF                                                                                                                           
  FILE IDENTIFIED AS IDF

 OPENING FILE ON UNIT   99:
 P:\1206764-IMOD\IMOD30\TESTBANK\RUNS\TEST_ALL\VERTICAL_RESISTANCE\IMODFLOW_C1.IDF                                                                                                                       
  FILE IDENTIFIED AS IDF

 OPENING FILE ON UNIT   99:
 P:\1206764-IMOD\IMOD30\TESTBANK\RUNS\TEST_ALL\TRANSMISSIVITY\IMODFLOW_KD2.IDF                                                                                                                           
  FILE IDENTIFIED AS IDF

 EVT -- EVAPOTRANSPIRATION PACKAGE, VERSION 7, 5/2/2005
         INPUT READ FROM UNIT   25
 # Evapotranspiration Package file
 No named parameters
 OPTION 1 -- EVAPOTRANSPIRATION FROM TOP LAYER


     0 Evapotranspiration parameters

 PCG -- CONJUGATE-GRADIENT SOLUTION PACKAGE, VERSION 7, 5/2/2005
 # Preconditioned Conjugate-Gradient Package
 MAXIMUM OF    150 CALLS OF SOLUTION ROUTINE
 MAXIMUM OF     20 INTERNAL ITERATIONS PER CALL TO SOLUTION ROUTINE
 MATRIX PRECONDITIONING TYPE :    1



                                    SOLUTION BY THE CONJUGATE-GRADIENT METHOD
                                   -------------------------------------------
                    MAXIMUM NUMBER OF CALLS TO PCG ROUTINE =      150
                        MAXIMUM ITERATIONS PER CALL TO PCG =       20
                               MATRIX PRECONDITIONING TYPE =        1
        RELAXATION FACTOR (ONLY USED WITH PRECOND. TYPE 1) =    0.98000E+00
 PARAMETER OF POLYNOMIAL PRECOND. = 2 (2) OR IS CALCULATED :        1
                         HEAD CHANGE CRITERION FOR CLOSURE =    0.10000E-03
                     RESIDUAL CHANGE CRITERION FOR CLOSURE =    0.10000E+02
            PCG HEAD AND RESIDUAL CHANGE PRINTOUT INTERVAL =        1
     PRINTING FROM SOLVER IS LIMITED(1) OR SUPPRESSED (>1) =        0
                            STEADY-STATE DAMPING PARAMETER =    0.10000E+01
                               TRANSIENT DAMPING PARAMETER =    0.10000E+01
1
                            STRESS PERIOD NO.    1, LENGTH =   0.000000    
                            -----------------------------------------------

                              NUMBER OF TIME STEPS =     1

                               MULTIPLIER FOR DELT =     1.000

                            INITIAL TIME STEP SIZE =   0.000000    

               ET SURFACE =   4.00000    

  EVAPOTRANSPIRATION RATE =  9.500000E-04

         EXTINCTION DEPTH =   1.00000    
 
 SOLVING FOR HEAD 
 
 SOLVING FOR HEAD 
 
 SOLVING FOR HEAD 
 
 SOLVING FOR HEAD 
 
 SOLVING FOR HEAD 
 
 SOLVING FOR HEAD 
 
 SOLVING FOR HEAD 
 
 SOLVING FOR HEAD 
 
 SOLVING FOR HEAD 
 
 SOLVING FOR HEAD 
 
 SOLVING FOR HEAD 
 
 SOLVING FOR HEAD 
 
 SOLVING FOR HEAD 
 
 SOLVING FOR HEAD 
 
 SOLVING FOR HEAD 
 
 SOLVING FOR HEAD 
 
 SOLVING FOR HEAD 
 
 SOLVING FOR HEAD 
 
 SOLVING FOR HEAD 
 
 SOLVING FOR HEAD 


    20 CALLS TO PCG ROUTINE FOR TIME STEP   1 IN STRESS PERIOD    1
   373 TOTAL ITERATIONS

 MAXIMUM HEAD CHANGE FOR EACH ITERATION (1 INDICATES THE FIRST INNER ITERATION):

    HEAD CHANGE    HEAD CHANGE    HEAD CHANGE    HEAD CHANGE    HEAD CHANGE 
   LAYER,ROW,COL  LAYER,ROW,COL  LAYER,ROW,COL  LAYER,ROW,COL  LAYER,ROW,COL
 ---------------------------------------------------------------------------
  1   3.726      0   3.265      0   1.284      0   1.062      0  0.8114    
   (  1,  5, 99)  (  2,  1, 99)  (  2,  3, 96)  (  2,  2, 87)  (  2,  1, 93)
  0  0.8298      0  0.7227      0  0.6009      0  0.9792      0  0.9332    
   (  2,  3, 88)  (  2,  3, 81)  (  1,  5, 78)  (  2,  2, 79)  (  2,100, 63)
  0  0.7979      0  0.8099      0  0.3486      0  0.1536      0  0.1169    
   (  2,100, 56)  (  2,  1, 70)  (  2,  4, 50)  (  2,  1, 55)  (  2,  1, 62)
  0  0.5444E-01  0  0.5353E-01  0  0.5091E-01  0  0.4942E-01  0  0.2986E-01
   (  2,  3, 57)  (  2,  1, 61)  (  2,100, 29)  (  1,100, 24)  (  2, 99, 22)
  1 -0.1853      0  -1.820      0 -0.7790      0 -0.6946      0 -0.6161    
   (  1,100, 36)  (  2,  1, 67)  (  1,100, 43)  (  2, 95, 58)  (  2,  3, 42)
  0 -0.4344      0 -0.3267      0 -0.1979      0 -0.1023      0 -0.5835E-01
   (  1,  1, 46)  (  2,  1, 55)  (  2,  3, 50)  (  2,  3, 57)  (  2,  5, 52)
  0  0.3087E-01  0  0.1748E-01  0  0.1024E-01  0  0.8804E-02  0  0.8855E-02
   (  2,  2, 32)  (  2,100, 66)  (  2,100, 64)  (  1, 99, 63)  (  2, 96, 63)
  0  0.7436E-02  0  0.6018E-02  0  0.4338E-02  0  0.2357E-02  0 -0.1364E-02
   (  1,100, 81)  (  2,100, 77)  (  1,100, 76)  (  1,100, 74)  (  2,  4, 82)
  1  0.1826      0   2.010      0  0.7534      0  0.4984      0  0.4312    
   (  1,100, 54)  (  2,  1, 32)  (  1,100, 58)  (  2, 94, 51)  (  1,100, 51)
  0  0.3223      0  0.2103      0  0.7501E-01  0 -0.5021E-01  0 -0.3390E-01
   (  1,  1, 47)  (  2,  1, 49)  (  1,  4, 51)  (  1,  1, 27)  (  2,  3, 24)
  0 -0.2315E-01  0 -0.1534E-01  0 -0.1345E-01  0  0.9494E-02  0  0.8605E-02
   (  2,  2, 31)  (  2,  5, 26)  (  2,  5, 33)  (  2, 10, 66)  (  2,  2, 69)
  0  0.6184E-02  0  0.4330E-02  0  0.2730E-02  0  0.1506E-02  0  0.1264E-02
   (  1,  4, 75)  (  2,  3, 79)  (  2,  1, 83)  (  2,  4, 40)  (  2,  3, 46)
  1 -0.1781      0  -1.700      0 -0.9558      0 -0.7295      0 -0.3563    
   (  1,100, 50)  (  2,  1, 37)  (  1,100, 56)  (  2, 95, 51)  (  1,100, 50)
  0 -0.2699      0 -0.1654      0  0.9959E-01  0 -0.6530E-01  0 -0.4731E-01
   (  2,100, 87)  (  2,  1, 47)  (  2,  1, 22)  (  2,  5, 49)  (  2,  4, 77)
  0 -0.4645E-01  0 -0.4720E-01  0 -0.2603E-01  0 -0.1741E-01  0 -0.1502E-01
   (  2,  2, 66)  (  2,  1, 73)  (  1, 13, 67)  (  2,  6, 79)  (  2,  2, 81)
  0 -0.1067E-01  0 -0.7017E-02  0 -0.4888E-02  0  0.2117E-02  0  0.1206E-02
   (  2,  2, 85)  (  2,  2, 90)  (  2,  1, 85)  (  2,100, 54)  (  1, 99, 54)
  1  0.1796      0   2.179      0  0.7949      0  0.4840      0  0.2519    
   (  1,100, 49)  (  2,  1, 51)  (  1,100, 59)  (  2, 94, 55)  (  1, 94, 53)
  0  0.2114      0  0.1672      0  0.7415E-01  0 -0.4112E-01  0 -0.1883E-01
   (  1,  1, 51)  (  2,  1, 56)  (  1,  5, 53)  (  1,  1, 12)  (  1,  2,  9)
  0 -0.1607E-01  0  0.9680E-02  0  0.9265E-02  0 -0.8604E-02  0  0.8604E-02
   (  2,  2, 14)  (  1, 65, 34)  (  2, 57, 35)  (  1, 90, 74)  (  1,100, 25)
  0 -0.5140E-02  0  0.3438E-02  0  0.1817E-02  0  0.1160E-02  0  0.9515E-03
   (  2,100, 70)  (  1, 99, 17)  (  2, 98, 15)  (  2,  2, 26)  (  2,  1, 31)
  1 -0.1781      0  -1.682      0 -0.9441      0 -0.7137      0 -0.3400    
   (  1,100, 53)  (  2,  1, 41)  (  1,100, 54)  (  2, 95, 52)  (  1,100, 51)
  0 -0.2560      0 -0.1595      0  0.8721E-01  0 -0.6338E-01  0 -0.5093E-01
   (  2,100, 87)  (  2,  1, 49)  (  2,  1, 23)  (  2,  4, 51)  (  2,  4, 77)
  0 -0.5116E-01  0 -0.4764E-01  0 -0.2480E-01  0  0.1651E-01  0 -0.1334E-01
   (  2,  2, 66)  (  2,  1, 73)  (  1, 13, 67)  (  1,100, 30)  (  1, 12, 88)
  0 -0.1074E-01  0 -0.6746E-02  0 -0.4675E-02  0 -0.2055E-02  0  0.1071E-02
   (  2,  2, 85)  (  2,  2, 90)  (  2,  1, 84)  (  1,  3, 88)  (  1, 99, 55)
  1  0.1788      0   2.051      0  0.8410      0  0.5460      0  0.2515    
   (  1,100, 50)  (  2,  1, 51)  (  1,100, 60)  (  2,100, 13)  (  1, 95, 55)
  0  0.1751      0  0.1272      0  0.6687E-01  0  0.4338E-01  0  0.3019E-01
   (  1,  1, 53)  (  2,  1, 56)  (  1,  5, 53)  (  1,100, 37)  (  2, 99, 38)
  0  0.2482E-01  0  0.2750E-01  0  0.1463E-01  0  0.1387E-01  0  0.1128E-01
   (  2, 69, 34)  (  2,  1, 35)  (  2, 56, 38)  (  2,100, 22)  (  1,100, 26)
  0  0.7141E-02  0  0.5507E-02  0  0.2891E-02  0  0.1804E-02  0  0.1151E-02
   (  1, 84, 15)  (  2,  3, 15)  (  2,  3, 23)  (  2,  5, 18)  (  2,  5, 25)
  1 -0.1785      0  -1.598      0 -0.8928      0 -0.7072      0 -0.3355    
   (  1,100, 42)  (  2,  1, 51)  (  1,100, 53)  (  2, 95, 52)  (  1,100, 52)
  0 -0.2626      0 -0.1433      0 -0.7756E-01  0  0.6704E-01  0 -0.6355E-01
   (  2,100, 86)  (  2,  1, 50)  (  1,  6, 52)  (  1,  1, 26)  (  2,  4, 76)
  0 -0.5789E-01  0 -0.5009E-01  0 -0.2333E-01  0  0.1633E-01  0 -0.1060E-01
   (  2,  3, 67)  (  2,  1, 72)  (  2,  7, 72)  (  1,100, 32)  (  1, 12, 87)
  0 -0.8692E-02  0 -0.5762E-02  0 -0.3750E-02  0 -0.1785E-02  0 -0.9614E-03
   (  2,  2, 84)  (  2,  2, 90)  (  2,  1, 84)  (  1,  3, 87)  (  1,100, 32)
  1  0.1768      0   1.800      0  0.8614      0  0.6109      0  0.3034    
   (  1,100, 52)  (  2,  1, 50)  (  1,100, 61)  (  2,100, 17)  (  1,100, 57)
  0  0.2375      0  0.1344      0  0.7436E-01  0  0.1045      0  0.7581E-01
   (  1,  1, 21)  (  2,  1, 23)  (  2,100, 19)  (  2,  2, 26)  (  2,  6, 22)
  0  0.5742E-01  0  0.3405E-01  0  0.1872E-01  0  0.1148E-01  0  0.6693E-02
   (  2,  6, 30)  (  2,  3, 19)  (  1,  2, 42)  (  2,  6, 39)  (  2,  4, 44)
  0  0.3399E-02  0  0.2477E-02  0 -0.2141E-02  0 -0.1855E-02  0 -0.1301E-02
   (  2, 99, 82)  (  1,100, 80)  (  1,100, 41)  (  2, 90, 43)  (  1,100, 48)
  1 -0.1789      0  -1.548      0 -0.8592      0 -0.6702      0 -0.3150    
   (  1,100, 62)  (  2,  1, 40)  (  1,100, 54)  (  2, 95, 53)  (  1,100, 52)
  0 -0.2441      0 -0.1264      0 -0.7037E-01  0  0.6524E-01  0 -0.6308E-01
   (  2,100, 86)  (  2,  1, 51)  (  1,  7, 53)  (  1,  1, 13)  (  2,  4, 76)
  0 -0.5240E-01  0 -0.4516E-01  0 -0.2011E-01  0  0.1463E-01  0 -0.8596E-02
   (  2,  2, 82)  (  2,  1, 72)  (  2,  1, 83)  (  1,100, 34)  (  1, 12, 87)
  0 -0.6654E-02  0 -0.4313E-02  0 -0.2836E-02  0  0.1403E-02  0 -0.9434E-03
   (  2,  2, 84)  (  2,  2, 90)  (  2,  1, 84)  (  2,  2, 60)  (  1,100, 34)
  1  0.1749      0   1.597      0  0.8151      0  0.6076      0  0.3364    
   (  1,100, 54)  (  2,  1, 50)  (  1,100, 62)  (  2,100, 20)  (  1,100, 58)
  0  0.2890      0  0.1956      0  0.1219      0  0.1514      0  0.1167    
   (  1,  1, 25)  (  2,  2, 14)  (  2,100, 22)  (  2,  3, 30)  (  2,  5, 24)
  0  0.7624E-01  0  0.5154E-01  0  0.2082E-01  0  0.1479E-01  0  0.9746E-02
   (  2,  1, 40)  (  2,  1, 47)  (  1,  4, 45)  (  2,  3, 50)  (  2,  1, 54)
  0  0.7005E-02  0  0.5433E-02  0  0.4056E-02  0  0.2587E-02  0  0.2409E-02
   (  1,  4, 52)  (  2,  2, 56)  (  2,  1, 62)  (  2,  5, 60)  (  2,  3, 66)
  1 -0.1802      0  -1.466      0 -0.8000      0 -0.6101      0 -0.2796    
   (  1,100, 66)  (  2,  1, 43)  (  1,100, 57)  (  2, 96, 55)  (  1,100, 54)
  0 -0.2203      0 -0.1201      0 -0.7410E-01  0 -0.7560E-01  0 -0.7120E-01
   (  2,100, 86)  (  1,100, 84)  (  1, 18, 79)  (  2,  4, 84)  (  2,  4, 76)
  0 -0.4771E-01  0 -0.3635E-01  0 -0.1528E-01  0  0.1260E-01  0  0.6623E-02
   (  2,  2, 82)  (  2,  2, 73)  (  2,  1, 83)  (  1,100, 39)  (  2, 97, 37)
  0 -0.5203E-02  0 -0.3154E-02  0 -0.1845E-02  0 -0.1051E-02  0  0.5765E-03
   (  2,  2, 84)  (  2,  2, 90)  (  2,  3, 84)  (  1,  3, 87)  (  2, 99, 54)
  1  0.1729      0   1.341      0  0.7180      0  0.5524      0  0.3174    
   (  1,100, 66)  (  2,  1, 51)  (  1,100, 63)  (  2, 96, 61)  (  1,100, 60)
  0  0.3328      0  0.2621      0  0.2196      0  0.1719      0  0.1150    
   (  1,  1, 29)  (  2,  2, 18)  (  2,100, 28)  (  2,  2, 35)  (  2,  1, 25)
  0  0.7874E-01  0  0.5832E-01  0  0.2465E-01  0  0.1285E-01  0  0.8702E-02
   (  1,  1, 44)  (  2,  1, 50)  (  1,  5, 48)  (  2,  4, 54)  (  2,  2, 59)
  0 -0.6808E-02  0 -0.4616E-02  0  0.3157E-02  0  0.1783E-02  0  0.9335E-03
   (  2,  6, 83)  (  2,  5, 86)  (  2,  3, 41)  (  2,  2, 47)  (  2,  6, 73)
  1 -0.1809      0  -1.270      0 -0.6567      0 -0.4960      0 -0.2201    
   (  1,100, 67)  (  2,  1, 50)  (  1,100, 60)  (  2, 96, 57)  (  1,100, 58)
  0 -0.2057      0 -0.1274      0 -0.9173E-01  0 -0.9089E-01  0 -0.6526E-01
   (  2,100, 85)  (  1,100, 83)  (  1, 18, 78)  (  2,  4, 84)  (  2,  4, 76)
  0 -0.3463E-01  0 -0.1878E-01  0 -0.1026E-01  0 -0.6225E-02  0  0.3674E-02
   (  2,  2, 82)  (  2,  3, 75)  (  2,100, 63)  (  1,100, 62)  (  2,  2, 58)
  0  0.2284E-02  0  0.1414E-02  0  0.1196E-02  0 -0.1127E-02  0 -0.1006E-02
   (  2,  1, 65)  (  2,  6, 63)  (  2,  2, 67)  (  1,100, 73)  (  2, 98, 77)
  1  0.1699      0   1.070      0  0.5375      0  0.4031      0  0.2396    
   (  1,100, 69)  (  2,  1, 56)  (  1,100, 66)  (  2,100, 34)  (  1,100, 63)
  0  0.3323      0  0.3216      0  0.2652      0  0.1711      0  0.8285E-01
   (  1,  1, 39)  (  2,  2, 28)  (  2,100, 36)  (  2,  3, 45)  (  2,  5, 38)
  0  0.5620E-01  0  0.3889E-01  0  0.1848E-01  0  0.1311E-01  0  0.9183E-02
   (  1,  1, 55)  (  2,  4, 53)  (  1,  7, 57)  (  2,  9, 58)  (  2,  2, 42)
  0  0.5587E-02  0  0.3356E-02  0  0.1972E-02  0  0.1500E-02  0  0.1810E-02
   (  2,  1, 49)  (  2,  3, 42)  (  2,  1, 79)  (  1,  9, 38)  (  2,  4, 81)
  1 -0.1814      0 -0.9155      0 -0.4008      0 -0.3095      0 -0.1533    
   (  1,100, 70)  (  2,  1, 61)  (  1,100, 68)  (  1,  1, 87)  (  1,100, 83)
  0 -0.1647      0 -0.1000      0 -0.5953E-01  0 -0.5090E-01  0 -0.2929E-01
   (  2,100, 83)  (  1,100, 81)  (  1, 28, 77)  (  2,  4, 82)  (  2,  4, 75)
  0 -0.1468E-01  0 -0.1198E-01  0 -0.1204E-01  0 -0.5417E-02  0  0.2895E-02
   (  2,  2, 80)  (  2,100, 63)  (  1,100, 62)  (  2, 95, 59)  (  2,  3, 28)
  0 -0.1585E-02  0  0.9552E-03  0 -0.5814E-03  0 -0.4657E-03  0 -0.4105E-03
   (  1,100, 49)  (  2,  2, 27)  (  2, 98, 43)  (  2,100, 40)  (  1,100, 39)
  1  0.1586      0  0.6165      0  0.2663      0  0.2756      0  0.1612    
   (  1,100, 72)  (  2,  1, 66)  (  1,100, 71)  (  2,100, 52)  (  2, 20, 50)
  0  0.1728      0  0.1355      0  0.9970E-01  0  0.7724E-01  0  0.3732E-01
   (  1,  1, 58)  (  2,  2, 45)  (  1,  4, 42)  (  2,  5, 48)  (  2,  1, 53)
  0  0.1815E-01  0  0.1241E-01  0  0.8684E-02  0  0.4918E-02  0  0.2988E-02
   (  2,  1, 43)  (  2,  2, 52)  (  2,100, 13)  (  2, 79, 14)  (  2,  1, 28)
  0  0.1976E-02  0 -0.1190E-02  0  0.7547E-03  0 -0.4662E-03  0 -0.2921E-03
   (  2,  3, 91)  (  2,100, 60)  (  2,  1, 23)  (  2, 99, 56)  (  2, 99, 55)
  1 -0.1123      0 -0.3298      0 -0.9923E-01  0 -0.8897E-01  0 -0.5072E-01
   (  1,100, 71)  (  2, 98, 68)  (  1,100, 61)  (  1,  1, 80)  (  2,  6, 87)
  0 -0.3968E-01  0 -0.2028E-01  0 -0.1005E-01  0 -0.6663E-02  0 -0.5669E-02
   (  2,100, 77)  (  2,  2, 28)  (  2,  3, 93)  (  2, 98, 16)  (  2,  1, 20)
  0  0.4097E-02  0  0.2040E-02  0 -0.1894E-02  0  0.1418E-02  0  0.8672E-03
   (  2,  1, 76)  (  2, 10, 77)  (  2,  2, 40)  (  1, 97, 76)  (  2, 93, 75)
  0  0.6635E-03  0 -0.3140E-03  0 -0.1854E-03  0 -0.1034E-03  0 -0.6733E-04
   (  2,  1, 88)  (  2,  4, 44)  (  2,  2, 33)  (  2,  2, 54)  (  2,  1, 45)
  1  0.3878E-02  0  0.3508E-02  0  0.2772E-02  0  0.1677E-02  0  0.7530E-03
   (  1, 99, 86)  (  2,100, 86)  (  1,100, 92)  (  2,  2, 78)  (  2, 76, 77)
  0  0.7220E-03  0  0.8001E-03  0  0.3467E-03  0  0.2453E-03  0  0.2473E-03
   (  2,  1, 77)  (  2,  2, 70)  (  2,  2, 77)  (  2, 99, 57)  (  2,  1, 62)
  0  0.1546E-03  0  0.9609E-04  1  0.4851E-04
   (  2,100, 47)  (  2,100, 42)  (  2,  4, 57)

 MAXIMUM RESIDUAL FOR EACH ITERATION (1 INDICATES THE FIRST INNER ITERATION):

    RESIDUAL       RESIDUAL       RESIDUAL       RESIDUAL       RESIDUAL    
   LAYER,ROW,COL  LAYER,ROW,COL  LAYER,ROW,COL  LAYER,ROW,COL  LAYER,ROW,COL
 ---------------------------------------------------------------------------
  1  -254.3      0   80.10      0   103.9      0  -38.14      0   71.35    
   (  2,  1, 99)  (  2,  1, 98)  (  2,  1, 99)  (  2,100,100)  (  2,  2, 98)
  0   33.95      0  -48.19      0  -42.38      0  -42.32      0  -57.34    
   (  2, 99, 99)  (  2,  2, 98)  (  2,  2, 98)  (  2,  4, 97)  (  2,  3, 97)
  0   33.76      0   29.24      0   22.14      0   10.63      0   4.355    
   (  2, 99, 99)  (  2,  3, 97)  (  2,100, 99)  (  2,100, 99)  (  2,  4, 96)
  0  -5.038      0  -3.236      0  -2.204      0  -3.262      0  -1.665    
   (  2,100, 99)  (  2,100, 99)  (  2,  6, 94)  (  2, 99,100)  (  2, 99,100)
  1  -2.090      0  -27.34      0  -12.11      0   21.86      0   22.56    
   (  1,100, 98)  (  2,100, 99)  (  2,100, 99)  (  2,100, 99)  (  2,100, 99)
  0   7.742      0  -10.13      0  -7.166      0  -3.697      0  -2.275    
   (  2,  1, 99)  (  2,100, 99)  (  2,100, 99)  (  2,  3, 97)  (  2, 99,100)
  0   1.339      0  0.7225      0  0.5220      0  0.3678      0 -0.3714    
   (  2,100, 99)  (  2,  3, 97)  (  2, 99,100)  (  2,  2, 98)  (  1,  2,  3)
  0 -0.3880      0 -0.1994      0 -0.1467      0  0.1367      0  0.7243E-01
   (  2, 99,100)  (  2,  2, 98)  (  2,  1,  2)  (  2, 99,100)  (  2, 99,100)
  1   1.630      0   12.80      0   8.300      0  -10.81      0  -10.37    
   (  1,100, 87)  (  2,  1,  5)  (  1,  1, 10)  (  2,  1,  3)  (  1,  1,  7)
  0  -5.821      0  -6.402      0  -2.909      0   1.918      0   1.368    
   (  1,  2,  3)  (  2,  2,  1)  (  1,  2,  2)  (  1,  2,  3)  (  1,  2,  3)
  0 -0.6270      0 -0.6419      0 -0.4428      0  0.3134      0  0.5047    
   (  1,  1,  3)  (  1,  2,  3)  (  1,  2,  3)  (  1,  2,  4)  (  1,  2,  3)
  0  0.2600      0 -0.1204      0 -0.1459      0 -0.8169E-01  0  0.3340E-01
   (  1,  2,  3)  (  1,  2,  4)  (  1,  2,  3)  (  1,  2,  3)  (  1,  1,  3)
  1  -2.055      0  -11.45      0   8.821      0   13.00      0   8.536    
   (  1,100, 87)  (  1,  1,  8)  (  1,  1, 94)  (  2,100, 88)  (  2,100, 86)
  0  -6.065      0  -6.000      0  -3.163      0   2.561      0   1.969    
   (  2,100, 89)  (  2,100, 87)  (  2,100, 85)  (  2,100, 88)  (  2,100, 87)
  0  -1.994      0   1.641      0  0.7973      0 -0.7622      0 -0.6544    
   (  2,  2, 83)  (  2, 99, 89)  (  2, 99, 87)  (  2, 99, 90)  (  2, 99, 88)
  0 -0.3436      0  0.2450      0  0.1941      0  0.8323E-01  0  0.4727E-01
   (  2, 99, 86)  (  2, 99, 90)  (  2, 99, 88)  (  1,  3,  3)  (  2, 98, 90)
  1   1.600      0   15.31      0   8.002      0  -12.07      0  -6.458    
   (  1,100, 87)  (  1,  1, 12)  (  1,  1, 16)  (  1,  1, 12)  (  1,  1, 14)
  0   6.088      0   5.787      0  -2.417      0   2.021      0  0.7552    
   (  1,  1, 11)  (  1,  1, 12)  (  2,100, 10)  (  1,  2, 10)  (  2,100, 11)
  0 -0.5496      0 -0.5065      0  0.3837      0  0.3122      0 -0.2927    
   (  1,  2,  9)  (  1,  2, 10)  (  2, 99, 12)  (  1,  2, 10)  (  2, 99, 13)
  0 -0.1654      0 -0.1101      0 -0.7494E-01  0  0.5038E-01  0  0.3463E-01
   (  2, 99, 11)  (  2,  2,  8)  (  1,  3,  3)  (  1,  2,  4)  (  1,  2,  3)
  1  -2.058      0  -11.29      0   8.702      0   12.73      0   8.285    
   (  1,100, 87)  (  2,100, 87)  (  1,  1, 94)  (  2,100, 88)  (  2,100, 86)
  0  -5.655      0  -5.607      0  -3.082      0   2.455      0   1.956    
   (  2,100, 90)  (  2,100, 87)  (  2,100, 85)  (  2,100, 88)  (  2,100, 87)
  0  -1.931      0   1.595      0  0.7487      0 -0.7270      0 -0.6137    
   (  2,  2, 83)  (  2, 99, 89)  (  2, 99, 87)  (  2, 99, 90)  (  2, 99, 88)
  0 -0.3284      0  0.2238      0  0.1789      0  0.8117E-01  0  0.4426E-01
   (  2, 99, 87)  (  2, 99, 90)  (  2, 99, 88)  (  2, 99, 87)  (  2, 98, 90)
  1   1.546      0   14.74      0   7.435      0  -13.07      0   6.818    
   (  1,100, 86)  (  1,  1, 15)  (  1,  1, 20)  (  1,  1, 15)  (  2,100, 14)
  0   5.290      0   4.940      0   2.801      0   2.048      0   1.395    
   (  1,  1, 14)  (  1,  1, 15)  (  1,  2, 12)  (  1,  2, 13)  (  2,100, 14)
  0  -1.120      0  0.9348      0  0.6234      0  0.5552      0 -0.4421    
   (  1,  2, 13)  (  2, 99, 16)  (  2, 99, 14)  (  1,  2, 13)  (  2, 99, 16)
  0  0.2449      0 -0.1947      0  0.1201      0  0.7344E-01  0 -0.3830E-01
   (  1,  3, 12)  (  1,  2, 13)  (  2, 99, 16)  (  2, 99, 14)  (  2, 99, 17)
  1  -2.052      0  -10.77      0   7.711      0   12.59      0   8.285    
   (  1,100, 86)  (  2,100, 86)  (  1,  1, 94)  (  2,100, 87)  (  2,100, 85)
  0  -5.232      0  -5.257      0  -2.898      0   2.773      0   2.124    
   (  2,100, 89)  (  2,100, 86)  (  2,100, 84)  (  2,100, 87)  (  2,100, 86)
  0  -2.188      0   1.587      0  0.7752      0 -0.6089      0 -0.5388    
   (  2,  2, 82)  (  2, 99, 88)  (  2, 99, 86)  (  2, 99, 89)  (  2, 99, 87)
  0 -0.2909      0  0.1809      0  0.1535      0  0.7423E-01  0  0.3827E-01
   (  2, 99, 86)  (  2, 99, 89)  (  2, 99, 87)  (  2, 99, 86)  (  2, 98, 89)
  1   1.600      0   13.83      0  -7.458      0  -14.97      0   7.744    
   (  1,  1, 19)  (  1,  1, 20)  (  1,  1, 19)  (  1,  1, 20)  (  2,100, 18)
  0   6.226      0   5.112      0   3.172      0   3.350      0   2.819    
   (  1,  1, 19)  (  1,  1, 20)  (  1,  2, 17)  (  1,  2, 19)  (  2,100, 18)
  0  -2.318      0  -1.353      0  0.7740      0  0.5836      0 -0.3680    
   (  1,  2, 18)  (  1,  2, 19)  (  2, 99, 18)  (  1,  2, 18)  (  2, 99, 20)
  0 -0.1905      0 -0.1226      0  0.1126      0  0.7074E-01  0  0.4765E-01
   (  2, 99, 18)  (  1,  2, 18)  (  2, 99, 19)  (  2, 99, 18)  (  2, 98, 21)
  1  -2.062      0  -10.42      0   7.386      0   11.96      0   7.869    
   (  1,100, 86)  (  2,100, 86)  (  1,  1, 94)  (  2,100, 87)  (  2,100, 85)
  0  -4.752      0  -4.962      0  -2.766      0   2.863      0   2.106    
   (  2,100, 89)  (  2,100, 86)  (  2,100, 84)  (  2,100, 87)  (  2,100, 86)
  0  -2.048      0   1.426      0  0.7128      0 -0.5499      0 -0.4797    
   (  2,  2, 82)  (  2, 99, 88)  (  2, 99, 86)  (  2, 99, 89)  (  2, 99, 87)
  0 -0.2593      0  0.1507      0  0.1318      0  0.6674E-01  0  0.3550E-01
   (  2, 99, 86)  (  2, 99, 89)  (  2, 99, 87)  (  2, 99, 86)  (  2, 98, 89)
  1   1.755      0   12.90      0  -7.828      0  -15.22      0   7.943    
   (  1,  1, 24)  (  1,  1, 25)  (  1,  1, 24)  (  1,  1, 25)  (  2,100, 20)
  0   7.107      0   6.314      0   4.069      0   4.456      0   3.689    
   (  1,  1, 24)  (  1,  1, 25)  (  1,  2, 22)  (  1,  2, 24)  (  2,100, 21)
  0  -2.800      0   1.600      0  0.9196      0  0.5502      0 -0.4118    
   (  2,  2, 20)  (  2, 99, 23)  (  2, 99, 22)  (  1,  2, 23)  (  2, 99, 23)
  0 -0.2437      0  0.1664      0  0.1448      0  0.9833E-01  0 -0.6742E-01
   (  2, 99, 21)  (  2, 99, 24)  (  2, 99, 22)  (  2, 99, 21)  (  2, 99, 23)
  1  -2.082      0  -9.890      0   6.892      0   10.97      0   7.200    
   (  1,100, 86)  (  2,100, 86)  (  1,  1, 94)  (  2,100, 87)  (  2,100, 85)
  0  -4.172      0  -4.493      0  -2.571      0   2.958      0   2.139    
   (  2,100, 89)  (  2,100, 86)  (  2,100, 83)  (  2,100, 87)  (  2,100, 86)
  0  -1.685      0   1.167      0  0.5974      0 -0.4380      0 -0.3885    
   (  2,  2, 82)  (  2, 99, 88)  (  2, 99, 86)  (  2, 99, 89)  (  2, 99, 87)
  0 -0.2109      0  0.1047      0  0.9103E-01  0  0.4856E-01  0  0.2753E-01
   (  2, 99, 86)  (  2, 99, 89)  (  2, 99, 87)  (  2, 99, 86)  (  2, 98, 89)
  1   1.746      0   11.12      0  -6.678      0  -13.72      0   7.407    
   (  1,  1, 28)  (  1,  1, 29)  (  1,  1, 28)  (  1,  1, 29)  (  2,100, 26)
  0   8.497      0   8.410      0   5.924      0   5.151      0   3.369    
   (  1,  1, 28)  (  1,  1, 29)  (  1,  2, 26)  (  1,  2, 28)  (  2,100, 27)
  0  -3.280      0  -2.064      0   1.071      0  0.7487      0 -0.4741    
   (  2,  2, 24)  (  1,  2, 28)  (  2, 99, 27)  (  1,  2, 27)  (  2, 99, 28)
  0 -0.3177      0 -0.2657      0  0.1472      0  0.7209E-01  0  0.3369E-01
   (  2, 99, 27)  (  1,  2, 27)  (  2, 99, 28)  (  2, 99, 27)  (  2, 98, 30)
  1  -2.061      0  -8.584      0  -5.549      0   9.235      0   6.167    
   (  1,100, 85)  (  2,100, 85)  (  1,100, 81)  (  2,100, 86)  (  2,100, 84)
  0  -3.576      0  -4.062      0  -2.471      0   2.978      0   1.889    
   (  2,100, 88)  (  2,100, 85)  (  2,100, 82)  (  2,100, 86)  (  2,100, 85)
  0  -1.200      0  0.6919      0  0.3713      0  0.1728      0 -0.1607    
   (  2,  2, 81)  (  2, 99, 87)  (  2, 99, 86)  (  2,  2, 81)  (  2, 99, 87)
  0 -0.9950E-01  0 -0.5511E-01  0  0.4454E-01  0  0.3470E-01  0  0.2787E-01
   (  2, 99, 86)  (  1,  1, 99)  (  2, 99, 87)  (  2, 99, 85)  (  2, 98, 88)
  1   1.674      0   8.875      0  -4.576      0  -10.63      0  -5.890    
   (  1,  1, 38)  (  1,  1, 39)  (  1,  1, 38)  (  1,  1, 39)  (  1,  1, 42)
  0   8.424      0   9.750      0   6.634      0   4.660      0  -2.757    
   (  1,  1, 38)  (  1,  1, 39)  (  1,  2, 36)  (  1,  2, 38)  (  1,  1, 39)
  0  -2.237      0  -1.388      0  0.7992      0  0.6576      0 -0.3992    
   (  2,  2, 34)  (  1,  2, 38)  (  2, 99, 36)  (  1,  2, 37)  (  2, 99, 37)
  0 -0.2373      0 -0.1205      0  0.8448E-01  0  0.6373E-01  0 -0.6164E-01
   (  2, 99, 36)  (  1,  2, 37)  (  2, 99, 37)  (  2, 99, 35)  (  2, 99, 38)
  1  -2.069      0  -6.322      0  -4.339      0   5.790      0   4.172    
   (  1,100, 83)  (  2,100, 83)  (  1,100, 79)  (  2,100, 84)  (  2,100, 82)
  0  -2.767      0  -2.852      0   1.557      0   1.451      0  0.9074    
   (  2,100, 86)  (  2,100, 83)  (  2,  2, 78)  (  2,100, 85)  (  2,100, 83)
  0 -0.5966      0  0.4973      0  0.3553      0  0.2095      0 -0.1861    
   (  2,  2, 79)  (  2, 99, 85)  (  2, 99, 83)  (  2,  2, 80)  (  2, 99, 84)
  0 -0.8631E-01  0 -0.4389E-01  0  0.2477E-01  0  0.1528E-01  0 -0.1262E-01
   (  2, 99, 83)  (  1,  1, 99)  (  2, 99, 85)  (  2, 99, 83)  (  2, 99, 85)
  1   1.331      0   4.845      0   2.856      0  -6.246      0  -3.571    
   (  1,100, 77)  (  1,  1, 57)  (  1,100, 76)  (  1,  1, 57)  (  1,  1, 60)
  0   3.894      0   3.631      0   2.901      0   2.275      0   1.432    
   (  1,  1, 56)  (  1,  1, 57)  (  1,  2, 55)  (  1,  2, 56)  (  2,100, 53)
  0 -0.9664      0  0.5438      0 -0.4251      0  0.2358      0 -0.1741    
   (  2,  2, 52)  (  2, 99, 55)  (  2,100, 53)  (  2,  2, 53)  (  2, 99, 55)
  0 -0.9286E-01  0  0.5404E-01  0  0.4854E-01  0  0.2768E-01  0 -0.1013E-01
   (  2, 99, 54)  (  2, 99, 57)  (  2, 99, 55)  (  2, 99, 54)  (  2, 99, 57)
  1  -1.233      0  -2.150      0  -1.422      0   2.148      0   1.283    
   (  1,100, 77)  (  2,100, 77)  (  1,100, 73)  (  2,100, 78)  (  2,100, 75)
  0  -1.013      0 -0.7419      0  0.4147      0 -0.2896      0  0.2291    
   (  2,100, 79)  (  2,100, 77)  (  1,  2, 74)  (  2, 99, 79)  (  2,100, 77)
  0 -0.1708      0  0.1049      0  0.6661E-01  0 -0.5891E-01  0 -0.4215E-01
   (  1,  2, 75)  (  2, 99, 79)  (  2, 99, 76)  (  2, 99, 79)  (  2, 99, 78)
  0 -0.1873E-01  0  0.1357E-01  0  0.9745E-02  0  0.3827E-02  0 -0.2004E-02
   (  2, 99, 76)  (  2, 99, 79)  (  2, 99, 78)  (  2, 99, 77)  (  2, 99, 79)
  1 -0.6280E-01  0  0.7750E-01  0  0.6282E-01  0 -0.4341E-01  0  0.3523E-01
   (  1,  1, 87)  (  1,  1, 85)  (  1,  1, 86)  (  1,  1, 84)  (  1,  2, 84)
  0 -0.2390E-01  0 -0.2467E-01  0 -0.1834E-01  0  0.9917E-02  0  0.9895E-02
   (  2,100, 85)  (  1,  2, 84)  (  1,  2, 84)  (  1,  2, 83)  (  1,  2, 84)
  0  0.7343E-02  0  0.5646E-02  1 -0.2201E-02
   (  1,  2, 85)  (  2, 99, 85)  (  1,  1, 99)



 OUTPUT CONTROL FOR STRESS PERIOD    1   TIME STEP   1
    SAVE HEAD FOR ALL LAYERS
    SAVE BUDGET
 INFO. Sign of cbc-flux FLOW RIGHT FACE is swapped!
 INFO. Sign of cbc-flux FLOW FRONT FACE is swapped!
 INFO. Sign of cbc-flux FLOW LOWER FACE is swapped!

 HEAD WILL BE SAVED ON UNIT   28 AT END OF TIME STEP   1, STRESS PERIOD    1
1
  VOLUMETRIC BUDGET FOR ENTIRE MODEL AT END OF TIME STEP  1 IN STRESS PERIOD   1
  ------------------------------------------------------------------------------

     CUMULATIVE VOLUMES      L**3       RATES FOR THIS TIME STEP      L**3/T
     ------------------                 ------------------------

           IN:                                      IN:
           ---                                      ---
             STORAGE =           0.0000               STORAGE =           0.0000
       CONSTANT HEAD =           0.0000         CONSTANT HEAD =        2727.6213
                  ET =           0.0000                    ET =           0.0000

            TOTAL IN =           0.0000              TOTAL IN =        2727.6213

          OUT:                                     OUT:
          ----                                     ----
             STORAGE =           0.0000               STORAGE =           0.0000
       CONSTANT HEAD =           0.0000         CONSTANT HEAD =           0.0000
                  ET =           0.0000                    ET =        2727.2515

           TOTAL OUT =           0.0000             TOTAL OUT =        2727.2515

            IN - OUT =           0.0000              IN - OUT =           0.3699

 PERCENT DISCREPANCY =           0.00     PERCENT DISCREPANCY =           0.01






          TIME SUMMARY AT END OF TIME STEP   1 IN STRESS PERIOD    1
                    SECONDS     MINUTES      HOURS       DAYS        YEARS
                    -----------------------------------------------------------
   TIME STEP LENGTH  0.0000      0.0000      0.0000      0.0000      0.0000    
 STRESS PERIOD TIME  0.0000      0.0000      0.0000      0.0000      0.0000    
         TOTAL TIME  0.0000      0.0000      0.0000      0.0000      0.0000    
1

 Run end date and time (yyyy/mm/dd hh:mm:ss): 2014/11/20  9:44:39
 Elapsed run time:  3.155 Seconds

