                                  MODFLOW-2005     
      U.S. GEOLOGICAL SURVEY MODULAR FINITE-DIFFERENCE GROUND-WATER FLOW MODEL
                            VERSION 1.8.00 12/18/2009

 LIST FILE: imodflow_hfb.list
                         UNIT   10

 OPENING imodflow_hfb.dis                                                                                                                                                                                                                                                                                            
 FILE TYPE:DIS   UNIT   11   STATUS:OLD    
 FORMAT:FORMATTED              ACCESS:SEQUENTIAL          

 OPENING imodflow_hfb.bas6                                                                                                                                                                                                                                                                                           
 FILE TYPE:BAS6   UNIT   12   STATUS:OLD    
 FORMAT:FORMATTED              ACCESS:SEQUENTIAL          

 OPENING imodflow_hfb.bcf6                                                                                                                                                                                                                                                                                           
 FILE TYPE:BCF6   UNIT   13   STATUS:OLD    
 FORMAT:FORMATTED              ACCESS:SEQUENTIAL          

 OPENING imodflow_hfb.oc                                                                                                                                                                                                                                                                                             
 FILE TYPE:OC   UNIT   14   STATUS:OLD    
 FORMAT:FORMATTED              ACCESS:SEQUENTIAL          

 OPENING imodflow_hfb.met                                                                                                                                                                                                                                                                                            
 FILE TYPE:MET   UNIT   15   STATUS:OLD    
 FORMAT:FORMATTED              ACCESS:SEQUENTIAL          

 OPENING imodflow_hfb.wel                                                                                                                                                                                                                                                                                            
 FILE TYPE:WEL   UNIT   19   STATUS:OLD    
 FORMAT:FORMATTED              ACCESS:SEQUENTIAL          

 OPENING imodflow_hfb.hfb6                                                                                                                                                                                                                                                                                           
 FILE TYPE:HFB6   UNIT   21   STATUS:OLD    
 FORMAT:FORMATTED              ACCESS:SEQUENTIAL          

 OPENING imodflow_hfb.pcg                                                                                                                                                                                                                                                                                            
 FILE TYPE:PCG   UNIT   22   STATUS:OLD    
 FORMAT:FORMATTED              ACCESS:SEQUENTIAL          
# data:                                                                                                                                                                                                                                                                                                     

 BAS -- BASIC PACKAGE, VERSION 7, 5/2/2005 INPUT READ FROM UNIT   12

 DISCRETIZATION INPUT DATA READ FROM UNIT   11
 # Discretization file
    2 LAYERS       100 ROWS       100 COLUMNS
    1 STRESS PERIOD(S) IN SIMULATION
 MODEL TIME UNIT IS DAYS
 MODEL LENGTH UNIT IS METERS
  Confining bed flag for each layer:
   1   0

                     DELR =   25.0000    

                     DELC =   25.0000    

 TOP ELEVATION OF LAYER 1 =   0.00000    

   MODEL LAYER BOTTOM EL. =   0.00000     FOR LAYER   1

 BOT. EL. OF QUASI-3D BED =   0.00000     FOR LAYER   1

   MODEL LAYER BOTTOM EL. =   0.00000     FOR LAYER   2


 STRESS PERIOD     LENGTH       TIME STEPS     MULTIPLIER FOR DELT    SS FLAG
 ----------------------------------------------------------------------------
        1         0.000000          1                    1.000         SS

 STEADY-STATE SIMULATION



 
 # Basic Package file                                                            
 THE FREE FORMAT OPTION HAS BEEN SELECTED

 OPENING FILE ON UNIT   99:
 d:\codes\clean\ossimod\MODFLOW\TESTBANK\TESTDATA\boundary\imodflow_ibound1.idf                                                                                                                          
  FILE IDENTIFIED AS IDF

           BOUNDARY ARRAY =              1 FOR LAYER   2

 AQUIFER HEAD WILL BE SET TO  -999.99     AT ALL NO-FLOW NODES (IBOUND=0).

 OPENING FILE ON UNIT   99:
 d:\codes\clean\ossimod\MODFLOW\TESTBANK\TESTDATA\starting_heads\imodflow_shead1.idf                                                                                                                     
  FILE IDENTIFIED AS IDF

 OPENING FILE ON UNIT   99:
 d:\codes\clean\ossimod\MODFLOW\TESTBANK\TESTDATA\starting_heads\imodflow_shead2.idf                                                                                                                     
  FILE IDENTIFIED AS IDF

 OUTPUT CONTROL IS SPECIFIED ONLY AT TIME STEPS FOR WHICH OUTPUT IS DESIRED
 HEAD PRINT FORMAT CODE IS   0    DRAWDOWN PRINT FORMAT CODE IS   0
 HEADS WILL BE SAVED ON UNIT   28    DRAWDOWNS WILL BE SAVED ON UNIT    0

 BCF -- BLOCK-CENTERED FLOW PACKAGE, VERSION 7, 5/2/2005
         INPUT READ FROM UNIT 13
 STEADY-STATE SIMULATION
 CELL-BY-CELL FLOWS WILL BE SAVED ON UNIT 29
 HEAD AT CELLS THAT CONVERT TO DRY=  -9999.0    
 WETTING CAPABILITY IS NOT ACTIVE
      LAYER  LAYER-TYPE CODE     INTERBLOCK T
      --------------------------------------------
         1            0          0 -- HARMONIC    
         2            0          0 -- HARMONIC    

 COLUMN TO ROW ANISOTROPY =   1.00000    

 OPENING FILE ON UNIT   99:
 d:\codes\clean\ossimod\MODFLOW\TESTBANK\TESTDATA\transmissivity\imodflow_kd1.idf                                                                                                                        
  FILE IDENTIFIED AS IDF

 OPENING FILE ON UNIT   99:
 d:\codes\clean\ossimod\MODFLOW\TESTBANK\TESTDATA\vertical_resistance\imodflow_c1.idf                                                                                                                    
  FILE IDENTIFIED AS IDF

 OPENING FILE ON UNIT   99:
 d:\codes\clean\ossimod\MODFLOW\TESTBANK\TESTDATA\transmissivity\imodflow_kd2.idf                                                                                                                        
  FILE IDENTIFIED AS IDF

 WEL -- WELL PACKAGE, VERSION 7, 5/2/2005 INPUT READ FROM UNIT   19
 # Well Package file
 No named parameters
 MAXIMUM OF      1 ACTIVE WELLS AT ONE TIME
 CELL-BY-CELL FLOWS WILL BE SAVED ON UNIT   33
 LISTS OF WELL CELLS WILL NOT BE PRINTED


     0 Well parameters

 HFB -- HORIZONTAL-FLOW BARRIER PACKAGE, VERSION 7, 5/2/2005.
   INPUT READ FROM UNIT   21
 # Horizontal Flow Barrier Package file
     0 PARAMETERS DEFINE A MAXIMUM OF      0 HORIZONTAL FLOW BARRIERS
      1 HORIZONTAL FLOW BARRIERS NOT DEFINED BY PARAMETERS
 LISTS OF HORIZONTAL FLOW BARRIER CELLS WILL NOT BE PRINTED
          Applying factor instead of hydraulic characteristic


     0 HFB parameters

      1 BARRIERS NOT DEFINED BY PARAMETERS
  DATA IDENTIFIED AS LCD

 OPENING FILE ON UNIT   99:
 d:\codes\clean\ossimod\MODFLOW\TESTBANK\TESTDATA\horizontal_barrier\imodflow_hfb2.gen                                                                                                                   
  FILE IDENTIFIED AS GEN
